LTspice 24.1.5 for Windows
Circuit: C:\Users\ramaz\Desktop\Circuitos II\TP-TA138-G7\Simulación\LDO\simulacion_LDO_lazo_corriente_shunt.net
Start Time: Sat May  9 18:28:11 2026
solver = Normal
Maximum thread count: 12
tnom = 27
temp = 27
method = trap
Direct Newton iteration failed to find .op point.  (Use ".option noopiter" to skip.)
Starting Gmin stepping
Gmin = 10
vernier = 0.5
Gmin = 1.67772
vernier = 0.25
vernier = 0.125
Gmin = 1.20453
vernier = 0.0625
vernier = 0.03125
Gmin = 1.14054
vernier = 0.0416667
vernier = 0.0208333
vernier = 0.0277778
Gmin = 1.08658
vernier = 0.0138889
vernier = 0.0185185
vernier = 0.00925925
Gmin = 1.07037
vernier = 0.0123457
vernier = 0.00617283
Gmin = 1.05481
vernier = 0.00823044
vernier = 0.00411522
vernier = 0.00548696
Gmin = 1.04509
vernier = 0.00274348
vernier = 0.00365797
Gmin = 1.03866
vernier = 0.00182899
vernier = 0.00243865
Gmin = 1.03377
vernier = 0.00325153
vernier = 0.00162576
Gmin = 1.02937
vernier = 0.00216769
vernier = 0.00108384
Gmin = 1.02658
vernier = 0.00144512
vernier = 0.00192683
vernier = 0.000963415
Gmin = 1.02387
vernier = 0.00128455
vernier = 0.000642277
Gmin = 1.02149
vernier = 0.000856369
Gmin = 1.01957
vernier = 0.00114182
vernier = 0.000570912
vernier = 0.000761216
Gmin = 1.01824
vernier = 0.00101495
vernier = 0.000507477
Gmin = 1.01695
vernier = 0.000676636
vernier = 0.000902182
vernier = 0.000451091
Gmin = 1.01567
vernier = 0.000601454
vernier = 0.000451091
Gmin = 1.01464
vernier = 0.000601454
vernier = 0.000451091
Gmin = 1.01373
vernier = 0.000601454
vernier = 0.000451091
vernier = 0.000601454
vernier = 0.00045109
Gmin = 1.01304
Gmin = 0
Gmin stepping failed

Starting source stepping with srcstepmethod=0
Source Step = 3.0303%
Source Step = 33.3333%
Source Step = 63.6364%
vernier = 0.25
Source Step = 68.1818%
Source Step = 75.7576%
Source Step = 83.3333%
Source Step = 90.9091%
Source Step = 98.4848%
vernier = 0.375
Source stepping succeeded in finding the operating point.

Total elapsed time: 2.659 seconds.

Files loaded:
C:\Users\ramaz\Desktop\Circuitos II\TP-TA138-G7\Simulación\LDO\simulacion_LDO_lazo_corriente_shunt.net
C:\Users\ramaz\AppData\Local\LTspice\lib\cmp\standard.bjt
C:\Users\ramaz\Desktop\Circuitos II\TP-TA138-G7\Simulación\LDO\Modelos\irf4905.spi
C:\Users\ramaz\Desktop\Circuitos II\TP-TA138-G7\Simulación\LDO\Modelos\TL431.spi
C:\Users\ramaz\Desktop\Circuitos II\TP-TA138-G7\Simulación\LDO\Modelos\LM358.txt
C:\Users\ramaz\Desktop\Circuitos II\TP-TA138-G7\Simulación\LDO\Modelos\LM324.txt

