LTspice 24.1.5 for Windows
Circuit: C:\users\sebastian\Desktop\FIUBA-2do Cuatrimestre\Taller de Diseño Electrónico TA138\TP_Taller_de_Diseño_ TA138_G7\Simulación\BUCK\buck.net
Start Time: Sun May 24 00:22:48 2026
solver = Normal
Maximum thread count: 4
tnom = 27
temp = 27
method = trap
C:\users\sebastian\Desktop\FIUBA-2do Cuatrimestre\Taller de Diseño Electrónico TA138\TP_Taller_de_Diseño_ TA138_G7\Simulación\BUCK\buck.net(8): Limiting rise time to 1e-07.

V2 Ctrl 0 PULSE(0 10 0 0 0 3u 4u)
^^^^^^^^^^^^^^^^^^^^^^^^^^^^^^^^^
C:\users\sebastian\Desktop\FIUBA-2do Cuatrimestre\Taller de Diseño Electrónico TA138\TP_Taller_de_Diseño_ TA138_G7\Simulación\BUCK\buck.net(8): Limiting fall time to 1e-07.

V2 Ctrl 0 PULSE(0 10 0 0 0 3u 4u)
^^^^^^^^^^^^^^^^^^^^^^^^^^^^^^^^^
Direct Newton iteration for .op point succeeded.
Total elapsed time: 281.701 seconds.

Files loaded:
C:\users\sebastian\Desktop\FIUBA-2do Cuatrimestre\Taller de Diseño Electrónico TA138\TP_Taller_de_Diseño_ TA138_G7\Simulación\BUCK\buck.net
C:\users\sebastian\AppData\Local\LTspice\lib\cmp\standard.dio
C:\users\sebastian\AppData\Local\LTspice\lib\cmp\standard.bjt

