LTspice 24.0.12 for Windows
Circuit: * C:\Users\ramaz\Desktop\Circuitos II\TP-TA138-G7\Simulaci鏮\BUCK\Buck_lazo_abierto.asc
Start Time: Fri May 29 19:42:17 2026
solver = Normal
Maximum thread count: 8
tnom = 27
temp = 27
method = modified trap
gmin = 1e-10
abstol = 1e-10
reltol = 0.003
Limiting rise time of source vgenerador to 3e-07
Limiting fall time of source vgenerador to 3e-07
Instance "m:u7:_gd_template:_ho_stage:_ho_pmos": Length shorter than recommended for a level 1 MOSFET.
Instance "m:u7:_gd_template:_ho_stage:_ho_nmos": Length shorter than recommended for a level 1 MOSFET.
Instance "m:u7:_gd_template:_lo_stage:_lo_pmos": Length shorter than recommended for a level 1 MOSFET.
Instance "m:u7:_gd_template:_lo_stage:_lo_nmos": Length shorter than recommended for a level 1 MOSFET.
Direct Newton iteration for .op point succeeded.
Heightened Def Con from 3.50644e-06 to 3.50757e-06
Heightened Def Con from 1.10857e-05 to 1.10857e-05
Heightened Def Con from 1.10857e-05 to 1.10857e-05
Heightened Def Con from 1.10859e-05 to 1.10859e-05
Heightened Def Con from 1.1086e-05 to 1.1086e-05
Heightened Def Con from 1.1086e-05 to 1.1086e-05
Heightened Def Con from 1.1086e-05 to 1.1086e-05
Heightened Def Con from 1.1086e-05 to 1.10868e-05
Heightened Def Con from 1.10868e-05 to 1.10888e-05
Heightened Def Con from 1.11026e-05 to 1.11032e-05
Heightened Def Con from 1.52361e-05 to 1.52381e-05
Heightened Def Con from 1.52386e-05 to 1.52388e-05
Heightened Def Con from 1.52388e-05 to 1.52392e-05
Heightened Def Con from 1.52393e-05 to 1.52393e-05
Heightened Def Con from 1.52393e-05 to 1.52393e-05
Heightened Def Con from 1.52394e-05 to 1.52394e-05
Heightened Def Con from 1.52394e-05 to 1.52394e-05
Heightened Def Con from 1.52395e-05 to 1.52395e-05
Heightened Def Con from 1.52396e-05 to 1.52397e-05
Heightened Def Con from 1.52398e-05 to 1.52399e-05
Heightened Def Con from 1.524e-05 to 1.524e-05
Heightened Def Con from 1.524e-05 to 1.524e-05
Heightened Def Con from 1.52401e-05 to 1.52401e-05
Heightened Def Con from 1.52401e-05 to 1.52404e-05
Heightened Def Con from 1.52404e-05 to 1.52404e-05
Heightened Def Con from 1.52404e-05 to 1.52404e-05
Heightened Def Con from 1.52405e-05 to 1.52405e-05
Heightened Def Con from 1.52405e-05 to 1.52405e-05
Heightened Def Con from 1.52407e-05 to 1.52408e-05
Heightened Def Con from 1.52408e-05 to 1.52448e-05
Heightened Def Con from 1.52508e-05 to 1.52528e-05
Heightened Def Con from 1.52529e-05 to 1.52539e-05
Heightened Def Con from 1.52539e-05 to 1.52539e-05
Heightened Def Con from 1.52541e-05 to 1.52541e-05
Heightened Def Con from 1.52542e-05 to 1.52542e-05
Heightened Def Con from 1.52543e-05 to 1.52543e-05
Heightened Def Con from 1.52544e-05 to 1.52544e-05
Heightened Def Con from 1.52544e-05 to 1.52544e-05
Heightened Def Con from 1.52544e-05 to 1.52544e-05
Heightened Def Con from 1.52544e-05 to 1.52544e-05
Heightened Def Con from 1.52545e-05 to 1.52545e-05
Heightened Def Con from 1.52547e-05 to 1.52547e-05
Heightened Def Con from 1.52547e-05 to 1.52547e-05
Heightened Def Con from 1.52548e-05 to 1.52548e-05
Heightened Def Con from 1.52548e-05 to 1.52548e-05
Heightened Def Con from 1.5255e-05 to 1.5255e-05
Heightened Def Con from 1.52551e-05 to 1.52556e-05
Heightened Def Con from 1.52557e-05 to 1.52617e-05
Heightened Def Con from 1.86642e-05 to 1.86642e-05
Heightened Def Con from 1.86642e-05 to 1.86642e-05
Heightened Def Con from 1.86646e-05 to 1.86646e-05
Heightened Def Con from 1.86646e-05 to 1.86646e-05
Heightened Def Con from 1.86646e-05 to 1.86646e-05
Heightened Def Con from 1.86646e-05 to 1.86646e-05
Heightened Def Con from 1.86647e-05 to 1.86647e-05
Heightened Def Con from 1.86647e-05 to 1.86647e-05
Heightened Def Con from 1.86647e-05 to 1.86647e-05
Heightened Def Con from 1.86648e-05 to 1.86648e-05
Heightened Def Con from 1.86648e-05 to 1.86648e-05
Heightened Def Con from 1.86649e-05 to 1.86649e-05
Heightened Def Con from 1.8665e-05 to 1.8665e-05
Heightened Def Con from 1.8665e-05 to 1.8665e-05
Heightened Def Con from 1.8665e-05 to 1.86653e-05
Heightened Def Con from 1.86654e-05 to 1.86674e-05
Heightened Def Con from 1.8672e-05 to 1.8674e-05
Heightened Def Con from 1.86771e-05 to 1.86772e-05
Heightened Def Con from 1.86772e-05 to 1.86773e-05
Heightened Def Con from 1.86775e-05 to 1.86778e-05
Heightened Def Con from 1.8678e-05 to 1.8678e-05
Heightened Def Con from 1.8678e-05 to 1.8678e-05
Heightened Def Con from 1.86781e-05 to 1.86781e-05
Heightened Def Con from 1.86781e-05 to 1.86784e-05
Heightened Def Con from 1.86784e-05 to 1.86786e-05
Heightened Def Con from 1.86787e-05 to 1.86877e-05
Heightened Def Con from 2.27054e-05 to 2.27065e-05
Heightened Def Con from 2.27091e-05 to 2.27091e-05
Heightened Def Con from 2.27109e-05 to 2.27129e-05
Heightened Def Con from 2.27133e-05 to 2.27143e-05
Heightened Def Con from 2.27148e-05 to 2.27148e-05
Heightened Def Con from 2.27169e-05 to 2.27199e-05
Heightened Def Con from 2.60906e-05 to 2.60936e-05
Heightened Def Con from 2.61759e-05 to 2.61759e-05
Heightened Def Con from 2.61759e-05 to 2.61759e-05
Heightened Def Con from 2.61759e-05 to 2.61759e-05
Heightened Def Con from 2.61761e-05 to 2.61761e-05
Heightened Def Con from 2.61761e-05 to 2.61761e-05
Heightened Def Con from 2.61761e-05 to 2.61761e-05
Heightened Def Con from 2.61761e-05 to 2.61761e-05
Heightened Def Con from 2.61762e-05 to 2.61762e-05
Heightened Def Con from 2.61762e-05 to 2.61762e-05
Heightened Def Con from 2.61762e-05 to 2.61762e-05
Heightened Def Con from 2.61762e-05 to 2.61762e-05
Heightened Def Con from 2.61762e-05 to 2.61762e-05
Heightened Def Con from 2.61763e-05 to 2.61763e-05
Heightened Def Con from 2.61763e-05 to 2.61763e-05
Heightened Def Con from 2.61763e-05 to 2.61763e-05
Heightened Def Con from 2.61763e-05 to 2.61763e-05
Heightened Def Con from 2.61763e-05 to 2.61763e-05
Heightened Def Con from 2.61764e-05 to 2.61764e-05
Heightened Def Con from 2.61764e-05 to 2.61764e-05
Heightened Def Con from 2.61764e-05 to 2.61768e-05
Heightened Def Con from 2.61771e-05 to 2.61772e-05
Heightened Def Con from 2.61779e-05 to 2.61779e-05
Heightened Def Con from 2.61779e-05 to 2.61783e-05
Heightened Def Con from 2.61784e-05 to 2.61787e-05
Heightened Def Con from 2.61788e-05 to 2.61878e-05
Heightened Def Con from 3.0089e-05 to 3.0092e-05
Heightened Def Con from 3.01886e-05 to 3.01896e-05
Heightened Def Con from 3.01917e-05 to 3.01917e-05
Heightened Def Con from 3.01933e-05 to 3.01963e-05
Heightened Def Con from 3.36636e-05 to 3.36656e-05
Heightened Def Con from 3.36695e-05 to 3.36695e-05
Heightened Def Con from 3.36704e-05 to 3.36705e-05
Heightened Def Con from 3.36705e-05 to 3.36705e-05
Heightened Def Con from 3.36707e-05 to 3.36707e-05
Heightened Def Con from 3.36709e-05 to 3.36716e-05
Heightened Def Con from 3.36716e-05 to 3.36722e-05
Heightened Def Con from 3.36723e-05 to 3.36727e-05
Heightened Def Con from 3.36739e-05 to 3.36799e-05
Heightened Def Con from 3.76437e-05 to 3.76457e-05
Heightened Def Con from 3.76944e-05 to 3.76974e-05
Heightened Def Con from 3.77019e-05 to 3.7702e-05
Heightened Def Con from 3.77063e-05 to 3.77083e-05
Heightened Def Con from 3.7717e-05 to 3.7718e-05
Heightened Def Con from 3.77182e-05 to 3.77182e-05
Heightened Def Con from 3.77186e-05 to 3.77186e-05
Heightened Def Con from 3.77219e-05 to 3.77249e-05
Heightened Def Con from 4.10993e-05 to 4.11001e-05
Heightened Def Con from 4.11793e-05 to 4.11803e-05
Heightened Def Con from 4.11803e-05 to 4.11803e-05
Heightened Def Con from 4.11804e-05 to 4.11804e-05
Heightened Def Con from 4.11809e-05 to 4.11809e-05
Heightened Def Con from 4.11809e-05 to 4.11809e-05
Heightened Def Con from 4.11809e-05 to 4.11809e-05
Heightened Def Con from 4.11809e-05 to 4.11809e-05
Heightened Def Con from 4.11809e-05 to 4.1181e-05
Heightened Def Con from 4.1181e-05 to 4.1181e-05
Heightened Def Con from 4.11811e-05 to 4.11811e-05
Heightened Def Con from 4.11811e-05 to 4.11811e-05
Heightened Def Con from 4.11812e-05 to 4.11812e-05
Heightened Def Con from 4.11812e-05 to 4.11812e-05
Heightened Def Con from 4.11812e-05 to 4.11812e-05
Heightened Def Con from 4.11812e-05 to 4.11812e-05
Heightened Def Con from 4.11812e-05 to 4.11812e-05
Heightened Def Con from 4.11812e-05 to 4.11816e-05
Heightened Def Con from 4.11816e-05 to 4.11846e-05
Heightened Def Con from 4.11861e-05 to 4.11881e-05
Heightened Def Con from 4.11886e-05 to 4.11897e-05
Heightened Def Con from 4.11904e-05 to 4.11994e-05
Heightened Def Con from 4.51944e-05 to 4.51964e-05
Heightened Def Con from 4.51991e-05 to 4.51991e-05
Heightened Def Con from 4.52014e-05 to 4.52044e-05
Heightened Def Con from 4.58575e-05 to 4.58605e-05
Heightened Def Con from 4.87138e-05 to 4.87158e-05
Heightened Def Con from 4.87201e-05 to 4.87201e-05
Heightened Def Con from 4.87202e-05 to 4.87202e-05
Heightened Def Con from 4.87203e-05 to 4.87203e-05
Heightened Def Con from 4.87203e-05 to 4.87203e-05
Heightened Def Con from 4.87203e-05 to 4.87203e-05
Heightened Def Con from 4.87203e-05 to 4.87203e-05
Heightened Def Con from 4.87203e-05 to 4.87203e-05
Heightened Def Con from 4.87203e-05 to 4.87203e-05
Heightened Def Con from 4.87203e-05 to 4.87203e-05
Heightened Def Con from 4.87203e-05 to 4.87203e-05
Heightened Def Con from 4.87203e-05 to 4.87203e-05
Heightened Def Con from 4.87203e-05 to 4.87203e-05
Heightened Def Con from 4.87204e-05 to 4.87204e-05
Heightened Def Con from 4.87204e-05 to 4.87204e-05
Heightened Def Con from 4.87204e-05 to 4.87204e-05
Heightened Def Con from 4.87204e-05 to 4.87204e-05
Heightened Def Con from 4.87205e-05 to 4.87205e-05
Heightened Def Con from 4.87205e-05 to 4.87205e-05
Heightened Def Con from 4.87205e-05 to 4.87212e-05
Heightened Def Con from 4.87213e-05 to 4.87214e-05
Heightened Def Con from 4.87218e-05 to 4.87222e-05
Heightened Def Con from 4.87223e-05 to 4.87223e-05
Heightened Def Con from 4.87232e-05 to 4.87312e-05
Heightened Def Con from 5.27274e-05 to 5.27304e-05
Heightened Def Con from 5.27315e-05 to 5.27315e-05
Heightened Def Con from 5.27324e-05 to 5.27324e-05
Heightened Def Con from 5.27341e-05 to 5.27371e-05
Heightened Def Con from 5.27909e-05 to 5.27909e-05
Total elapsed time: 79980.511 seconds.

