LTspice 24.1.5 for Windows
Circuit: C:\users\sebastian\Desktop\FIUBA-2do Cuatrimestre\Taller de Diseño Electrónico TA138\TP_Taller_de_Diseño_ TA138_G7\Simulación\BUCK\CircuitoCompleteo_buck_sincrono_pwm.net
Start Time: Fri May 29 14:10:31 2026
Options: gmin=1e-10  abstol=1e-10  reltol=0.003
solver = Normal
Maximum thread count: 4
tnom = 27
temp = 27
method = trap
gmin = 1e-10
abstol = 1e-10
reltol = 0.003
Instance "u2:x_gd_template:x_ho_stage:M_HO_PMOS": Length shorter than recommended for a level 1 MOSFET.
Instance "u2:x_gd_template:x_ho_stage:M_HO_NMOS": Length shorter than recommended for a level 1 MOSFET.
Instance "u2:x_gd_template:x_lo_stage:M_LO_PMOS": Length shorter than recommended for a level 1 MOSFET.
Instance "u2:x_gd_template:x_lo_stage:M_LO_NMOS": Length shorter than recommended for a level 1 MOSFET.
Direct Newton iteration for .op point succeeded.
Warning: Simulation tolerance relaxed to achieve convergence from 3.7368250684464849e-06 to 3.7368250684474848e-06 seconds.
Warning: Simulation tolerance relaxed to achieve convergence from 7.1401293569869524e-06 to 7.1401293569879528e-06 seconds.
Warning: Simulation tolerance relaxed to achieve convergence from 7.1401293573119497e-06 to 7.1401293573129500e-06 seconds.
Warning: Simulation tolerance relaxed to achieve convergence from 7.1401355321909536e-06 to 7.1401355321919539e-06 seconds.
Warning: Simulation tolerance relaxed to achieve convergence from 7.1401879941759467e-06 to 7.1401879941769470e-06 seconds.
Warning: Simulation tolerance relaxed to achieve convergence from 7.1401936144589459e-06 to 7.1401936144599463e-06 seconds.
Warning: Simulation tolerance relaxed to achieve convergence from 7.1401936279089431e-06 to 7.1401936279099435e-06 seconds.
Warning: Simulation tolerance relaxed to achieve convergence from 7.1410670046711858e-06 to 7.1410670046721861e-06 seconds.
Warning: Simulation tolerance relaxed to achieve convergence from 7.1410733970041810e-06 to 7.1410733970051814e-06 seconds.
Warning: Simulation tolerance relaxed to achieve convergence from 7.1410733970051814e-06 to 7.1410733970061817e-06 seconds.
Warning: Simulation tolerance relaxed to achieve convergence from 7.1410734011671786e-06 to 7.1410734011681789e-06 seconds.
Warning: Simulation tolerance relaxed to achieve convergence from 7.1410737451851793e-06 to 7.1410737451861796e-06 seconds.
Warning: Simulation tolerance relaxed to achieve convergence from 7.1410737452031796e-06 to 7.1410737452041799e-06 seconds.
Warning: Simulation tolerance relaxed to achieve convergence from 7.1410788474501668e-06 to 7.1410788474511672e-06 seconds.
Warning: Simulation tolerance relaxed to achieve convergence from 7.1410788477951659e-06 to 7.1410788477961662e-06 seconds.
Warning: Simulation tolerance relaxed to achieve convergence from 7.1410812930931558e-06 to 7.1410812930941561e-06 seconds.
Warning: Simulation tolerance relaxed to achieve convergence from 7.1410812994591555e-06 to 7.1410812994601559e-06 seconds.
Warning: Simulation tolerance relaxed to achieve convergence from 9.9420021889819032e-06 to 9.9420021889829027e-06 seconds.
Warning: Simulation tolerance relaxed to achieve convergence from 9.9420022405159027e-06 to 9.9420022405169022e-06 seconds.
Warning: Simulation tolerance relaxed to achieve convergence from 9.9420023735499013e-06 to 9.9420023735509008e-06 seconds.
Warning: Simulation tolerance relaxed to achieve convergence from 9.9420023747458966e-06 to 9.9420023747468961e-06 seconds.
Warning: Simulation tolerance relaxed to achieve convergence from 9.9420023748108945e-06 to 9.9420023748118940e-06 seconds.
Warning: Simulation tolerance relaxed to achieve convergence from 9.9420077663238904e-06 to 9.9420077663248899e-06 seconds.
Warning: Simulation tolerance relaxed to achieve convergence from 9.9420081507778879e-06 to 9.9420081507788874e-06 seconds.
Warning: Simulation tolerance relaxed to achieve convergence from 9.9420081520818799e-06 to 9.9420081520828794e-06 seconds.
Warning: Simulation tolerance relaxed to achieve convergence from 9.9420081520828794e-06 to 9.9420081520838789e-06 seconds.
Warning: Simulation tolerance relaxed to achieve convergence from 9.9420104254468750e-06 to 9.9420104254478745e-06 seconds.
Warning: Simulation tolerance relaxed to achieve convergence from 9.9420104315928630e-06 to 9.9420104315938625e-06 seconds.
Warning: Simulation tolerance relaxed to achieve convergence from 9.9420118317828483e-06 to 9.9420118317838478e-06 seconds.
Warning: Simulation tolerance relaxed to achieve convergence from 9.9421985227978379e-06 to 9.9421985227988374e-06 seconds.
Warning: Simulation tolerance relaxed to achieve convergence from 9.9421985237498301e-06 to 9.9421985237508296e-06 seconds.
Warning: Simulation tolerance relaxed to achieve convergence from 9.9421985240388276e-06 to 9.9421985240398271e-06 seconds.
Warning: Simulation tolerance relaxed to achieve convergence from 9.9421985243558246e-06 to 9.9421985243568241e-06 seconds.
Warning: Simulation tolerance relaxed to achieve convergence from 9.9421985291488181e-06 to 9.9421985291498176e-06 seconds.
Warning: Simulation tolerance relaxed to achieve convergence from 9.9421985366148189e-06 to 9.9421985366158184e-06 seconds.
Warning: Simulation tolerance relaxed to achieve convergence from 9.9421985367118161e-06 to 9.9421985367128156e-06 seconds.
Warning: Simulation tolerance relaxed to achieve convergence from 9.9421985400888111e-06 to 9.9421985400898106e-06 seconds.
Warning: Simulation tolerance relaxed to achieve convergence from 9.9421985493017936e-06 to 9.9421985493027931e-06 seconds.
Warning: Simulation tolerance relaxed to achieve convergence from 9.9421985533887886e-06 to 9.9421985533897881e-06 seconds.
Warning: Simulation tolerance relaxed to achieve convergence from 9.9421985534037878e-06 to 9.9421985534047873e-06 seconds.
Warning: Simulation tolerance relaxed to achieve convergence from 9.9421986613517859e-06 to 9.9421986613527854e-06 seconds.
Warning: Simulation tolerance relaxed to achieve convergence from 9.9421986613527854e-06 to 9.9421986613537849e-06 seconds.
Warning: Simulation tolerance relaxed to achieve convergence from 9.9421990083997801e-06 to 9.9421990084007796e-06 seconds.
Warning: Simulation tolerance relaxed to achieve convergence from 9.9421990090397779e-06 to 9.9421990090407774e-06 seconds.
Warning: Simulation tolerance relaxed to achieve convergence from 9.9421990117507712e-06 to 9.9421990117517707e-06 seconds.
Warning: Simulation tolerance relaxed to achieve convergence from 9.9421990136837648e-06 to 9.9421990136847643e-06 seconds.
Warning: Simulation tolerance relaxed to achieve convergence from 9.9421990143357616e-06 to 9.9421990143367611e-06 seconds.
Warning: Simulation tolerance relaxed to achieve convergence from 9.9421990148467614e-06 to 9.9421990148477609e-06 seconds.
Warning: Simulation tolerance relaxed to achieve convergence from 9.9421990230737552e-06 to 9.9421990230747547e-06 seconds.
Warning: Simulation tolerance relaxed to achieve convergence from 9.9422035692707566e-06 to 9.9422035692717561e-06 seconds.
Warning: Simulation tolerance relaxed to achieve convergence from 9.9422037336797551e-06 to 9.9422037336807546e-06 seconds.
Warning: Simulation tolerance relaxed to achieve convergence from 9.9422038753817536e-06 to 9.9422038753827531e-06 seconds.
Warning: Simulation tolerance relaxed to achieve convergence from 9.9422039914417472e-06 to 9.9422039914427467e-06 seconds.
Warning: Simulation tolerance relaxed to achieve convergence from 9.9422039915067451e-06 to 9.9422039915077446e-06 seconds.
Warning: Simulation tolerance relaxed to achieve convergence from 9.9422042700617477e-06 to 9.9422042700627472e-06 seconds.
Warning: Simulation tolerance relaxed to achieve convergence from 9.9422042855527471e-06 to 9.9422042855537466e-06 seconds.
Warning: Simulation tolerance relaxed to achieve convergence from 9.9422044352677416e-06 to 9.9422044352687411e-06 seconds.
Warning: Simulation tolerance relaxed to achieve convergence from 9.9422044355387379e-06 to 9.9422044355397374e-06 seconds.
Warning: Simulation tolerance relaxed to achieve convergence from 9.9422044361717341e-06 to 9.9422044361727336e-06 seconds.
Warning: Simulation tolerance relaxed to achieve convergence from 9.9422044382897298e-06 to 9.9422044382907293e-06 seconds.
Warning: Simulation tolerance relaxed to achieve convergence from 9.9422044388497270e-06 to 9.9422044388507265e-06 seconds.
Warning: Simulation tolerance relaxed to achieve convergence from 9.9422044461067174e-06 to 9.9422044461077169e-06 seconds.
Warning: Simulation tolerance relaxed to achieve convergence from 9.9422044496707118e-06 to 9.9422044496717113e-06 seconds.
Warning: Simulation tolerance relaxed to achieve convergence from 9.9422044575607051e-06 to 9.9422044575617046e-06 seconds.
Warning: Simulation tolerance relaxed to achieve convergence from 9.9422044576897049e-06 to 9.9422044576907044e-06 seconds.
Warning: Simulation tolerance relaxed to achieve convergence from 9.9422044579317039e-06 to 9.9422044579327034e-06 seconds.
Warning: Simulation tolerance relaxed to achieve convergence from 9.9422044665097031e-06 to 9.9422044665107026e-06 seconds.
Warning: Simulation tolerance relaxed to achieve convergence from 9.9422044665107026e-06 to 9.9422044665117021e-06 seconds.
Warning: Simulation tolerance relaxed to achieve convergence from 9.9422044666397006e-06 to 9.9422044666407001e-06 seconds.
Warning: Simulation tolerance relaxed to achieve convergence from 9.9422044806116938e-06 to 9.9422044806126933e-06 seconds.
Warning: Simulation tolerance relaxed to achieve convergence from 9.9422044849066912e-06 to 9.9422044849076907e-06 seconds.
Warning: Simulation tolerance relaxed to achieve convergence from 9.9422044945536867e-06 to 9.9422044945546862e-06 seconds.
Warning: Simulation tolerance relaxed to achieve convergence from 9.9422045910576835e-06 to 9.9422045910586830e-06 seconds.
Warning: Simulation tolerance relaxed to achieve convergence from 9.9422045910586830e-06 to 9.9422045910596825e-06 seconds.
Warning: Simulation tolerance relaxed to achieve convergence from 9.9422056238306852e-06 to 9.9422056238316847e-06 seconds.
Warning: Simulation tolerance relaxed to achieve convergence from 9.9422058384816717e-06 to 9.9422058384826712e-06 seconds.
Warning: Simulation tolerance relaxed to achieve convergence from 9.9422058515376715e-06 to 9.9422058515386710e-06 seconds.
Warning: Simulation tolerance relaxed to achieve convergence from 9.9422058528586669e-06 to 9.9422058528596664e-06 seconds.
Warning: Simulation tolerance relaxed to achieve convergence from 9.9422060245066698e-06 to 9.9422060245076693e-06 seconds.
Warning: Simulation tolerance relaxed to achieve convergence from 9.9422060717386635e-06 to 9.9422060717396630e-06 seconds.
Warning: Simulation tolerance relaxed to achieve convergence from 9.9422060734866617e-06 to 9.9422060734876612e-06 seconds.
Warning: Simulation tolerance relaxed to achieve convergence from 9.9422060736166609e-06 to 9.9422060736176604e-06 seconds.
Warning: Simulation tolerance relaxed to achieve convergence from 9.9422060746946577e-06 to 9.9422060746956572e-06 seconds.
Warning: Simulation tolerance relaxed to achieve convergence from 9.9422060750806557e-06 to 9.9422060750816552e-06 seconds.
Warning: Simulation tolerance relaxed to achieve convergence from 9.9422060756776547e-06 to 9.9422060756786542e-06 seconds.
Warning: Simulation tolerance relaxed to achieve convergence from 9.9422060759806520e-06 to 9.9422060759816515e-06 seconds.
Warning: Simulation tolerance relaxed to achieve convergence from 9.9422060760706509e-06 to 9.9422060760716504e-06 seconds.
Warning: Simulation tolerance relaxed to achieve convergence from 9.9422060765166476e-06 to 9.9422060765176471e-06 seconds.
Warning: Simulation tolerance relaxed to achieve convergence from 9.9422060833376464e-06 to 9.9422060833386459e-06 seconds.
Warning: Simulation tolerance relaxed to achieve convergence from 9.9422062530856460e-06 to 9.9422062530866455e-06 seconds.
Warning: Simulation tolerance relaxed to achieve convergence from 9.9422067860476398e-06 to 9.9422067860486393e-06 seconds.
Warning: Simulation tolerance relaxed to achieve convergence from 9.9422067906466391e-06 to 9.9422067906476386e-06 seconds.
Warning: Simulation tolerance relaxed to achieve convergence from 9.9422067920016343e-06 to 9.9422067920026338e-06 seconds.
Warning: Simulation tolerance relaxed to achieve convergence from 9.9422067993276172e-06 to 9.9422067993286167e-06 seconds.
Warning: Simulation tolerance relaxed to achieve convergence from 9.9422068090976103e-06 to 9.9422068090986098e-06 seconds.
Warning: Simulation tolerance relaxed to achieve convergence from 9.9422068097796073e-06 to 9.9422068097806068e-06 seconds.
Warning: Simulation tolerance relaxed to achieve convergence from 9.9422068098066073e-06 to 9.9422068098076068e-06 seconds.
Warning: Simulation tolerance relaxed to achieve convergence from 9.9422068104086055e-06 to 9.9422068104096050e-06 seconds.
Warning: Simulation tolerance relaxed to achieve convergence from 9.9422068104726039e-06 to 9.9422068104736034e-06 seconds.
Warning: Simulation tolerance relaxed to achieve convergence from 9.9422068105376019e-06 to 9.9422068105386014e-06 seconds.
Warning: Simulation tolerance relaxed to achieve convergence from 9.9422068111056001e-06 to 9.9422068111065996e-06 seconds.
Warning: Simulation tolerance relaxed to achieve convergence from 9.9422068119425974e-06 to 9.9422068119435969e-06 seconds.
Warning: Simulation tolerance relaxed to achieve convergence from 9.9422068123665950e-06 to 9.9422068123675945e-06 seconds.
Warning: Simulation tolerance relaxed to achieve convergence from 9.9422068126615929e-06 to 9.9422068126625924e-06 seconds.
Warning: Simulation tolerance relaxed to achieve convergence from 9.9422098646835934e-06 to 9.9422098646845929e-06 seconds.
Warning: Simulation tolerance relaxed to achieve convergence from 9.9422106813505873e-06 to 9.9422106813515868e-06 seconds.
Warning: Simulation tolerance relaxed to achieve convergence from 9.9422122306505890e-06 to 9.9422122306515885e-06 seconds.
Warning: Simulation tolerance relaxed to achieve convergence from 9.9422122306515885e-06 to 9.9422122306525880e-06 seconds.
Warning: Simulation tolerance relaxed to achieve convergence from 9.9422122306525880e-06 to 9.9422122306535875e-06 seconds.
Warning: Simulation tolerance relaxed to achieve convergence from 9.9422122769615886e-06 to 9.9422122769625881e-06 seconds.
Warning: Simulation tolerance relaxed to achieve convergence from 9.9422122771595876e-06 to 9.9422122771605871e-06 seconds.
Warning: Simulation tolerance relaxed to achieve convergence from 9.9422123605835848e-06 to 9.9422123605845843e-06 seconds.
Warning: Simulation tolerance relaxed to achieve convergence from 9.9422123608505814e-06 to 9.9422123608515809e-06 seconds.
Warning: Simulation tolerance relaxed to achieve convergence from 9.9422123608685808e-06 to 9.9422123608695803e-06 seconds.
Warning: Simulation tolerance relaxed to achieve convergence from 9.9422123612295761e-06 to 9.9422123612305756e-06 seconds.
Warning: Simulation tolerance relaxed to achieve convergence from 9.9422123628025705e-06 to 9.9422123628035700e-06 seconds.
Warning: Simulation tolerance relaxed to achieve convergence from 9.9422123633515698e-06 to 9.9422123633525693e-06 seconds.
Warning: Simulation tolerance relaxed to achieve convergence from 9.9422123635315677e-06 to 9.9422123635325672e-06 seconds.
Warning: Simulation tolerance relaxed to achieve convergence from 9.9422123636615670e-06 to 9.9422123636625665e-06 seconds.
Warning: Simulation tolerance relaxed to achieve convergence from 9.9422123655735643e-06 to 9.9422123655745638e-06 seconds.
Warning: Simulation tolerance relaxed to achieve convergence from 9.9422123656375627e-06 to 9.9422123656385622e-06 seconds.
Warning: Simulation tolerance relaxed to achieve convergence from 9.9422123682475558e-06 to 9.9422123682485553e-06 seconds.
Warning: Simulation tolerance relaxed to achieve convergence from 9.9422123689605509e-06 to 9.9422123689615504e-06 seconds.
Warning: Simulation tolerance relaxed to achieve convergence from 9.9422123695365485e-06 to 9.9422123695375480e-06 seconds.
Warning: Simulation tolerance relaxed to achieve convergence from 9.9422123697225468e-06 to 9.9422123697235463e-06 seconds.
Warning: Simulation tolerance relaxed to achieve convergence from 9.9422123710845453e-06 to 9.9422123710855448e-06 seconds.
Warning: Simulation tolerance relaxed to achieve convergence from 9.9422126447535485e-06 to 9.9422126447545480e-06 seconds.
Warning: Simulation tolerance relaxed to achieve convergence from 9.9422126447585476e-06 to 9.9422126447595471e-06 seconds.
Warning: Simulation tolerance relaxed to achieve convergence from 9.9422126450705455e-06 to 9.9422126450715449e-06 seconds.
Warning: Simulation tolerance relaxed to achieve convergence from 9.9422128171885433e-06 to 9.9422128171895428e-06 seconds.
Warning: Simulation tolerance relaxed to achieve convergence from 9.9422128197935389e-06 to 9.9422128197945384e-06 seconds.
Warning: Simulation tolerance relaxed to achieve convergence from 9.9422130932975367e-06 to 9.9422130932985362e-06 seconds.
Warning: Simulation tolerance relaxed to achieve convergence from 9.9422131709315368e-06 to 9.9422131709325363e-06 seconds.
Warning: Simulation tolerance relaxed to achieve convergence from 9.9422153097185345e-06 to 9.9422153097195340e-06 seconds.
Warning: Simulation tolerance relaxed to achieve convergence from 9.9422153909555315e-06 to 9.9422153909565310e-06 seconds.
Warning: Simulation tolerance relaxed to achieve convergence from 9.9422153909925299e-06 to 9.9422153909935294e-06 seconds.
Warning: Simulation tolerance relaxed to achieve convergence from 9.9422159292575344e-06 to 9.9422159292585339e-06 seconds.
Warning: Simulation tolerance relaxed to achieve convergence from 9.9422159292585339e-06 to 9.9422159292595334e-06 seconds.
Warning: Simulation tolerance relaxed to achieve convergence from 9.9422159331575265e-06 to 9.9422159331585260e-06 seconds.
Warning: Simulation tolerance relaxed to achieve convergence from 9.9422159758585241e-06 to 9.9422159758595236e-06 seconds.
Warning: Simulation tolerance relaxed to achieve convergence from 9.9422161719885152e-06 to 9.9422161719895147e-06 seconds.
Warning: Simulation tolerance relaxed to achieve convergence from 9.9422161727865117e-06 to 9.9422161727875112e-06 seconds.
Warning: Simulation tolerance relaxed to achieve convergence from 9.9422167688745151e-06 to 9.9422167688755146e-06 seconds.
Warning: Simulation tolerance relaxed to achieve convergence from 9.9422168320905084e-06 to 9.9422168320915079e-06 seconds.
Warning: Simulation tolerance relaxed to achieve convergence from 9.9422176874525085e-06 to 9.9422176874535080e-06 seconds.
Warning: Simulation tolerance relaxed to achieve convergence from 9.9422293112945121e-06 to 9.9422293112955116e-06 seconds.
Warning: Simulation tolerance relaxed to achieve convergence from 9.9422293112955116e-06 to 9.9422293112965111e-06 seconds.
Warning: Simulation tolerance relaxed to achieve convergence from 9.9422293866364800e-06 to 9.9422293866374795e-06 seconds.
Warning: Simulation tolerance relaxed to achieve convergence from 9.9422293869304783e-06 to 9.9422293869314778e-06 seconds.
Warning: Simulation tolerance relaxed to achieve convergence from 9.9422293869314778e-06 to 9.9422293869324773e-06 seconds.
Warning: Simulation tolerance relaxed to achieve convergence from 9.9422450331574681e-06 to 9.9422450331584676e-06 seconds.
Warning: Simulation tolerance relaxed to achieve convergence from 9.9422450332864662e-06 to 9.9422450332874657e-06 seconds.
Warning: Simulation tolerance relaxed to achieve convergence from 9.9422450472544579e-06 to 9.9422450472554574e-06 seconds.
Warning: Simulation tolerance relaxed to achieve convergence from 9.9422450475844552e-06 to 9.9422450475854547e-06 seconds.
Warning: Simulation tolerance relaxed to achieve convergence from 9.9422450476474541e-06 to 9.9422450476484536e-06 seconds.
Warning: Simulation tolerance relaxed to achieve convergence from 9.9422450476484536e-06 to 9.9422450476494531e-06 seconds.
Warning: Simulation tolerance relaxed to achieve convergence from 9.9422450665134494e-06 to 9.9422450665144489e-06 seconds.
Warning: Simulation tolerance relaxed to achieve convergence from 9.9422453220074498e-06 to 9.9422453220084493e-06 seconds.
Warning: Simulation tolerance relaxed to achieve convergence from 9.9422478636024547e-06 to 9.9422478636034542e-06 seconds.
Warning: Simulation tolerance relaxed to achieve convergence from 9.9422489488144378e-06 to 9.9422489488154373e-06 seconds.
Warning: Simulation tolerance relaxed to achieve convergence from 9.9422489711454349e-06 to 9.9422489711464344e-06 seconds.
Warning: Simulation tolerance relaxed to achieve convergence from 9.9422489714334328e-06 to 9.9422489714344323e-06 seconds.
Warning: Simulation tolerance relaxed to achieve convergence from 9.9422489798124318e-06 to 9.9422489798134313e-06 seconds.
Warning: Simulation tolerance relaxed to achieve convergence from 9.9422489803244311e-06 to 9.9422489803254306e-06 seconds.
Warning: Simulation tolerance relaxed to achieve convergence from 9.9422888574843887e-06 to 9.9422888574853882e-06 seconds.
Warning: Simulation tolerance relaxed to achieve convergence from 9.9422889133893865e-06 to 9.9422889133903860e-06 seconds.
Warning: Simulation tolerance relaxed to achieve convergence from 9.9422890098973881e-06 to 9.9422890098983876e-06 seconds.
Warning: Simulation tolerance relaxed to achieve convergence from 9.9422890104443868e-06 to 9.9422890104453863e-06 seconds.
Warning: Simulation tolerance relaxed to achieve convergence from 9.9422890105743860e-06 to 9.9422890105753855e-06 seconds.
Warning: Simulation tolerance relaxed to achieve convergence from 9.9422890687603859e-06 to 9.9422890687613854e-06 seconds.
Warning: Simulation tolerance relaxed to achieve convergence from 9.9422890688903852e-06 to 9.9422890688913847e-06 seconds.
Warning: Simulation tolerance relaxed to achieve convergence from 9.9422890694373838e-06 to 9.9422890694383833e-06 seconds.
Warning: Simulation tolerance relaxed to achieve convergence from 9.9422904338623566e-06 to 9.9422904338633561e-06 seconds.
Warning: Simulation tolerance relaxed to achieve convergence from 9.9422904338633561e-06 to 9.9422904338643556e-06 seconds.
Warning: Simulation tolerance relaxed to achieve convergence from 9.9422904354663541e-06 to 9.9422904354673536e-06 seconds.
Warning: Simulation tolerance relaxed to achieve convergence from 9.9422904354673536e-06 to 9.9422904354683531e-06 seconds.
Warning: Simulation tolerance relaxed to achieve convergence from 9.9422904809463516e-06 to 9.9422904809473511e-06 seconds.
Warning: Simulation tolerance relaxed to achieve convergence from 9.9422905945863484e-06 to 9.9422905945873479e-06 seconds.
Warning: Simulation tolerance relaxed to achieve convergence from 9.9422906003363384e-06 to 9.9422906003373379e-06 seconds.
Warning: Simulation tolerance relaxed to achieve convergence from 9.9422906022273327e-06 to 9.9422906022283322e-06 seconds.
Warning: Simulation tolerance relaxed to achieve convergence from 9.9422906091363264e-06 to 9.9422906091373259e-06 seconds.
Warning: Simulation tolerance relaxed to achieve convergence from 9.9422906711453214e-06 to 9.9422906711463209e-06 seconds.
Warning: Simulation tolerance relaxed to achieve convergence from 9.9422906712243191e-06 to 9.9422906712253186e-06 seconds.
Warning: Simulation tolerance relaxed to achieve convergence from 9.9422906714963149e-06 to 9.9422906714973144e-06 seconds.
Warning: Simulation tolerance relaxed to achieve convergence from 9.9422916029653096e-06 to 9.9422916029663091e-06 seconds.
Warning: Simulation tolerance relaxed to achieve convergence from 9.9422916310603031e-06 to 9.9422916310613026e-06 seconds.
Warning: Simulation tolerance relaxed to achieve convergence from 9.9422916397932975e-06 to 9.9422916397942970e-06 seconds.
Warning: Simulation tolerance relaxed to achieve convergence from 9.9422916455622949e-06 to 9.9422916455632944e-06 seconds.
Warning: Simulation tolerance relaxed to achieve convergence from 9.9422916461182908e-06 to 9.9422916461192903e-06 seconds.
Warning: Simulation tolerance relaxed to achieve convergence from 9.9422916469672871e-06 to 9.9422916469682866e-06 seconds.
Warning: Simulation tolerance relaxed to achieve convergence from 9.9422916475462850e-06 to 9.9422916475472845e-06 seconds.
Warning: Simulation tolerance relaxed to achieve convergence from 9.9422916550452675e-06 to 9.9422916550462670e-06 seconds.
Warning: Simulation tolerance relaxed to achieve convergence from 9.9422916562672532e-06 to 9.9422916562682527e-06 seconds.
Warning: Simulation tolerance relaxed to achieve convergence from 9.9422916581422470e-06 to 9.9422916581432465e-06 seconds.
Warning: Simulation tolerance relaxed to achieve convergence from 1.4280700011728844e-05 to 1.4280700011729843e-05 seconds.
Warning: Simulation tolerance relaxed to achieve convergence from 1.4280700011729843e-05 to 1.4280700011730843e-05 seconds.
Warning: Simulation tolerance relaxed to achieve convergence from 1.4280700011736843e-05 to 1.4280700011737842e-05 seconds.
Warning: Simulation tolerance relaxed to achieve convergence from 1.4280700011737842e-05 to 1.4280700011738842e-05 seconds.
Warning: Simulation tolerance relaxed to achieve convergence from 1.4280700011738842e-05 to 1.4280700011739841e-05 seconds.
Warning: Simulation tolerance relaxed to achieve convergence from 1.4280700011748842e-05 to 1.4280700011749841e-05 seconds.
Warning: Simulation tolerance relaxed to achieve convergence from 1.4280700011755842e-05 to 1.4280700011756841e-05 seconds.
Warning: Simulation tolerance relaxed to achieve convergence from 1.4280700011756841e-05 to 1.4280700011757841e-05 seconds.
Warning: Simulation tolerance relaxed to achieve convergence from 1.4280700011888840e-05 to 1.4280700011889839e-05 seconds.
Warning: Simulation tolerance relaxed to achieve convergence from 1.4280700011889839e-05 to 1.4280700011890839e-05 seconds.
Warning: Simulation tolerance relaxed to achieve convergence from 1.4280700011896839e-05 to 1.4280700011897838e-05 seconds.
Warning: Simulation tolerance relaxed to achieve convergence from 1.4280700011897838e-05 to 1.4280700011898838e-05 seconds.
Warning: Simulation tolerance relaxed to achieve convergence from 1.4280700011904838e-05 to 1.4280700011905838e-05 seconds.
Warning: Simulation tolerance relaxed to achieve convergence from 1.4280700011905838e-05 to 1.4280700011906837e-05 seconds.
Warning: Simulation tolerance relaxed to achieve convergence from 1.4280700011912838e-05 to 1.4280700011913837e-05 seconds.
Warning: Simulation tolerance relaxed to achieve convergence from 1.4280700011913837e-05 to 1.4280700011914837e-05 seconds.
Warning: Simulation tolerance relaxed to achieve convergence from 1.4280700011914837e-05 to 1.4280700011915836e-05 seconds.
Warning: Simulation tolerance relaxed to achieve convergence from 1.4280700011924837e-05 to 1.4280700011925836e-05 seconds.
Warning: Simulation tolerance relaxed to achieve convergence from 1.4280700011925836e-05 to 1.4280700011926836e-05 seconds.
Warning: Simulation tolerance relaxed to achieve convergence from 1.4280700011926836e-05 to 1.4280700011927835e-05 seconds.
Warning: Simulation tolerance relaxed to achieve convergence from 1.4280700011927835e-05 to 1.4280700011928835e-05 seconds.
Warning: Simulation tolerance relaxed to achieve convergence from 1.4280700059010838e-05 to 1.4280700059011837e-05 seconds.
Warning: Simulation tolerance relaxed to achieve convergence from 1.4280700059011837e-05 to 1.4280700059012837e-05 seconds.
Warning: Simulation tolerance relaxed to achieve convergence from 1.4280700161154839e-05 to 1.4280700161155838e-05 seconds.
Warning: Simulation tolerance relaxed to achieve convergence from 1.4280700161155838e-05 to 1.4280700161156838e-05 seconds.
Warning: Simulation tolerance relaxed to achieve convergence from 1.4280700185143837e-05 to 1.4280700185144836e-05 seconds.
Warning: Simulation tolerance relaxed to achieve convergence from 1.4280700185150837e-05 to 1.4280700185151836e-05 seconds.
Warning: Simulation tolerance relaxed to achieve convergence from 1.4280700185151836e-05 to 1.4280700185152836e-05 seconds.
Warning: Simulation tolerance relaxed to achieve convergence from 1.4280700185152836e-05 to 1.4280700185153835e-05 seconds.
Warning: Simulation tolerance relaxed to achieve convergence from 1.4280700185159836e-05 to 1.4280700185160835e-05 seconds.
Warning: Simulation tolerance relaxed to achieve convergence from 1.4280700185160835e-05 to 1.4280700185161835e-05 seconds.
Warning: Simulation tolerance relaxed to achieve convergence from 1.4280700185161835e-05 to 1.4280700185162834e-05 seconds.
Warning: Simulation tolerance relaxed to achieve convergence from 1.4280700185169834e-05 to 1.4280700185170833e-05 seconds.
Warning: Simulation tolerance relaxed to achieve convergence from 1.4280700185170833e-05 to 1.4280700185171833e-05 seconds.
Warning: Simulation tolerance relaxed to achieve convergence from 1.4280700185171833e-05 to 1.4280700185172832e-05 seconds.
Warning: Simulation tolerance relaxed to achieve convergence from 1.4280700185178833e-05 to 1.4280700185179832e-05 seconds.
Warning: Simulation tolerance relaxed to achieve convergence from 1.4280700185179832e-05 to 1.4280700185180832e-05 seconds.
Warning: Simulation tolerance relaxed to achieve convergence from 1.4280700185180832e-05 to 1.4280700185181831e-05 seconds.
Warning: Simulation tolerance relaxed to achieve convergence from 1.4280700185265830e-05 to 1.4280700185266829e-05 seconds.
Warning: Simulation tolerance relaxed to achieve convergence from 1.4280700185266829e-05 to 1.4280700185267829e-05 seconds.
Warning: Simulation tolerance relaxed to achieve convergence from 1.4280700186334828e-05 to 1.4280700186335827e-05 seconds.
Warning: Simulation tolerance relaxed to achieve convergence from 1.4280700186335827e-05 to 1.4280700186336827e-05 seconds.
Warning: Simulation tolerance relaxed to achieve convergence from 1.4280700186336827e-05 to 1.4280700186337826e-05 seconds.
Warning: Simulation tolerance relaxed to achieve convergence from 1.4280700186337826e-05 to 1.4280700186338826e-05 seconds.
Warning: Simulation tolerance relaxed to achieve convergence from 1.4280700186338826e-05 to 1.4280700186339825e-05 seconds.
Warning: Simulation tolerance relaxed to achieve convergence from 1.4280700186348826e-05 to 1.4280700186349825e-05 seconds.
Warning: Simulation tolerance relaxed to achieve convergence from 1.4280700186476824e-05 to 1.4280700186477824e-05 seconds.
Warning: Simulation tolerance relaxed to achieve convergence from 1.4280700186477824e-05 to 1.4280700186478823e-05 seconds.
Warning: Simulation tolerance relaxed to achieve convergence from 1.4280700186478823e-05 to 1.4280700186479823e-05 seconds.
Warning: Simulation tolerance relaxed to achieve convergence from 1.4280700186495823e-05 to 1.4280700186496823e-05 seconds.
Warning: Simulation tolerance relaxed to achieve convergence from 1.4280700186521822e-05 to 1.4280700186522822e-05 seconds.
Warning: Simulation tolerance relaxed to achieve convergence from 1.4280700186522822e-05 to 1.4280700186523821e-05 seconds.
Warning: Simulation tolerance relaxed to achieve convergence from 1.4280700186523821e-05 to 1.4280700186524821e-05 seconds.
Warning: Simulation tolerance relaxed to achieve convergence from 1.4280700186524821e-05 to 1.4280700186525820e-05 seconds.
Warning: Simulation tolerance relaxed to achieve convergence from 1.4280700186525820e-05 to 1.4280700186526820e-05 seconds.
Warning: Simulation tolerance relaxed to achieve convergence from 1.4280700186535820e-05 to 1.4280700186536820e-05 seconds.
Warning: Simulation tolerance relaxed to achieve convergence from 1.4280700186585819e-05 to 1.4280700186586818e-05 seconds.
Warning: Simulation tolerance relaxed to achieve convergence from 1.4280700239713819e-05 to 1.4280700239714819e-05 seconds.
Warning: Simulation tolerance relaxed to achieve convergence from 1.4280700239714819e-05 to 1.4280700239715818e-05 seconds.
Warning: Simulation tolerance relaxed to achieve convergence from 1.4280700239715818e-05 to 1.4280700239716818e-05 seconds.
Warning: Simulation tolerance relaxed to achieve convergence from 1.4280700239716818e-05 to 1.4280700239717817e-05 seconds.
Warning: Simulation tolerance relaxed to achieve convergence from 1.4280700241245816e-05 to 1.4280700241246815e-05 seconds.
Warning: Simulation tolerance relaxed to achieve convergence from 1.4280700241246815e-05 to 1.4280700241247815e-05 seconds.
Warning: Simulation tolerance relaxed to achieve convergence from 1.4280700241376813e-05 to 1.4280700241377812e-05 seconds.
Warning: Simulation tolerance relaxed to achieve convergence from 1.4280700241393813e-05 to 1.4280700241394812e-05 seconds.
Warning: Simulation tolerance relaxed to achieve convergence from 1.4280700241394812e-05 to 1.4280700241395812e-05 seconds.
Warning: Simulation tolerance relaxed to achieve convergence from 1.4280700241523812e-05 to 1.4280700241524811e-05 seconds.
Warning: Simulation tolerance relaxed to achieve convergence from 1.4280700242349811e-05 to 1.4280700242350811e-05 seconds.
Warning: Simulation tolerance relaxed to achieve convergence from 1.4280700242350811e-05 to 1.4280700242351810e-05 seconds.
Warning: Simulation tolerance relaxed to achieve convergence from 1.4280700242357811e-05 to 1.4280700242358810e-05 seconds.
Warning: Simulation tolerance relaxed to achieve convergence from 1.4280700242358810e-05 to 1.4280700242359810e-05 seconds.
Warning: Simulation tolerance relaxed to achieve convergence from 1.4280700242376810e-05 to 1.4280700242377809e-05 seconds.
Warning: Simulation tolerance relaxed to achieve convergence from 1.4280700242395808e-05 to 1.4280700242396808e-05 seconds.
Warning: Simulation tolerance relaxed to achieve convergence from 1.4280700242396808e-05 to 1.4280700242397807e-05 seconds.
Warning: Simulation tolerance relaxed to achieve convergence from 1.4280700242519806e-05 to 1.4280700242520805e-05 seconds.
Warning: Simulation tolerance relaxed to achieve convergence from 1.4280700242527805e-05 to 1.4280700242528805e-05 seconds.
Warning: Simulation tolerance relaxed to achieve convergence from 1.4280700242528805e-05 to 1.4280700242529804e-05 seconds.
Warning: Simulation tolerance relaxed to achieve convergence from 1.4280700242545804e-05 to 1.4280700242546804e-05 seconds.
Warning: Simulation tolerance relaxed to achieve convergence from 1.4280700245101799e-05 to 1.4280700245102799e-05 seconds.
Warning: Simulation tolerance relaxed to achieve convergence from 1.4280700245102799e-05 to 1.4280700245103798e-05 seconds.
Warning: Simulation tolerance relaxed to achieve convergence from 1.4280700245109799e-05 to 1.4280700245110798e-05 seconds.
Warning: Simulation tolerance relaxed to achieve convergence from 1.4280700245110798e-05 to 1.4280700245111798e-05 seconds.
Warning: Simulation tolerance relaxed to achieve convergence from 1.4280700246430796e-05 to 1.4280700246431795e-05 seconds.
Warning: Simulation tolerance relaxed to achieve convergence from 1.4280700246431795e-05 to 1.4280700246432795e-05 seconds.
Warning: Simulation tolerance relaxed to achieve convergence from 1.4280700246707792e-05 to 1.4280700246708792e-05 seconds.
Warning: Simulation tolerance relaxed to achieve convergence from 1.4280700247228790e-05 to 1.4280700247229790e-05 seconds.
Warning: Simulation tolerance relaxed to achieve convergence from 1.4280700247229790e-05 to 1.4280700247230789e-05 seconds.
Warning: Simulation tolerance relaxed to achieve convergence from 1.4280700247230789e-05 to 1.4280700247231789e-05 seconds.
Warning: Simulation tolerance relaxed to achieve convergence from 1.4280700247231789e-05 to 1.4280700247232788e-05 seconds.
Warning: Simulation tolerance relaxed to achieve convergence from 1.4280700247238789e-05 to 1.4280700247239788e-05 seconds.
Warning: Simulation tolerance relaxed to achieve convergence from 1.4280700322257785e-05 to 1.4280700322258784e-05 seconds.
Warning: Simulation tolerance relaxed to achieve convergence from 1.4280700322258784e-05 to 1.4280700322259784e-05 seconds.
Warning: Simulation tolerance relaxed to achieve convergence from 1.4280700322259784e-05 to 1.4280700322260783e-05 seconds.
Warning: Simulation tolerance relaxed to achieve convergence from 1.4280700322260783e-05 to 1.4280700322261783e-05 seconds.
Warning: Simulation tolerance relaxed to achieve convergence from 1.4280700322270783e-05 to 1.4280700322271783e-05 seconds.
Warning: Simulation tolerance relaxed to achieve convergence from 1.4280700322309782e-05 to 1.4280700322310782e-05 seconds.
Warning: Simulation tolerance relaxed to achieve convergence from 1.4280700322830782e-05 to 1.4280700322831782e-05 seconds.
Warning: Simulation tolerance relaxed to achieve convergence from 1.4280700322831782e-05 to 1.4280700322832781e-05 seconds.
Warning: Simulation tolerance relaxed to achieve convergence from 1.4280700322841782e-05 to 1.4280700322842781e-05 seconds.
Warning: Simulation tolerance relaxed to achieve convergence from 1.4280700322842781e-05 to 1.4280700322843781e-05 seconds.
Warning: Simulation tolerance relaxed to achieve convergence from 1.4280700322843781e-05 to 1.4280700322844780e-05 seconds.
Warning: Simulation tolerance relaxed to achieve convergence from 1.4280700322889780e-05 to 1.4280700322890779e-05 seconds.
Warning: Simulation tolerance relaxed to achieve convergence from 1.4280700322890779e-05 to 1.4280700322891779e-05 seconds.
Warning: Simulation tolerance relaxed to achieve convergence from 1.4280700322891779e-05 to 1.4280700322892778e-05 seconds.
Warning: Simulation tolerance relaxed to achieve convergence from 1.4280700322898779e-05 to 1.4280700322899778e-05 seconds.
Warning: Simulation tolerance relaxed to achieve convergence from 1.4280700322899778e-05 to 1.4280700322900778e-05 seconds.
Warning: Simulation tolerance relaxed to achieve convergence from 1.4280700322900778e-05 to 1.4280700322901777e-05 seconds.
Warning: Simulation tolerance relaxed to achieve convergence from 1.4280700322901777e-05 to 1.4280700322902777e-05 seconds.
Warning: Simulation tolerance relaxed to achieve convergence from 1.4280700322908777e-05 to 1.4280700322909777e-05 seconds.
Warning: Simulation tolerance relaxed to achieve convergence from 1.4280700322909777e-05 to 1.4280700322910776e-05 seconds.
Warning: Simulation tolerance relaxed to achieve convergence from 1.4280700322910776e-05 to 1.4280700322911776e-05 seconds.
Warning: Simulation tolerance relaxed to achieve convergence from 1.4280700322927776e-05 to 1.4280700322928775e-05 seconds.
Warning: Simulation tolerance relaxed to achieve convergence from 1.4280700322928775e-05 to 1.4280700322929775e-05 seconds.
Warning: Simulation tolerance relaxed to achieve convergence from 1.4280700322929775e-05 to 1.4280700322930774e-05 seconds.
Warning: Simulation tolerance relaxed to achieve convergence from 1.4280700351484772e-05 to 1.4280700351485771e-05 seconds.
Warning: Simulation tolerance relaxed to achieve convergence from 1.4280700352309770e-05 to 1.4280700352310770e-05 seconds.
Warning: Simulation tolerance relaxed to achieve convergence from 1.4280700357058770e-05 to 1.4280700357059770e-05 seconds.
Warning: Simulation tolerance relaxed to achieve convergence from 1.4280700357066770e-05 to 1.4280700357067769e-05 seconds.
Warning: Simulation tolerance relaxed to achieve convergence from 1.4280700357067769e-05 to 1.4280700357068769e-05 seconds.
Warning: Simulation tolerance relaxed to achieve convergence from 1.4280700357068769e-05 to 1.4280700357069768e-05 seconds.
Warning: Simulation tolerance relaxed to achieve convergence from 1.4280700357087768e-05 to 1.4280700357088767e-05 seconds.
Warning: Simulation tolerance relaxed to achieve convergence from 1.4280700357088767e-05 to 1.4280700357089767e-05 seconds.
Warning: Simulation tolerance relaxed to achieve convergence from 1.4280700357089767e-05 to 1.4280700357090766e-05 seconds.
Warning: Simulation tolerance relaxed to achieve convergence from 1.4280700357127765e-05 to 1.4280700357128764e-05 seconds.
Warning: Simulation tolerance relaxed to achieve convergence from 1.4280700357128764e-05 to 1.4280700357129764e-05 seconds.
Warning: Simulation tolerance relaxed to achieve convergence from 1.4280700357198763e-05 to 1.4280700357199762e-05 seconds.
Warning: Simulation tolerance relaxed to achieve convergence from 1.4280700357199762e-05 to 1.4280700357200762e-05 seconds.
Warning: Simulation tolerance relaxed to achieve convergence from 1.4280700357206762e-05 to 1.4280700357207762e-05 seconds.
Warning: Simulation tolerance relaxed to achieve convergence from 1.4280700357207762e-05 to 1.4280700357208761e-05 seconds.
Warning: Simulation tolerance relaxed to achieve convergence from 1.4280700357208761e-05 to 1.4280700357209761e-05 seconds.
Warning: Simulation tolerance relaxed to achieve convergence from 1.4280700357209761e-05 to 1.4280700357210760e-05 seconds.
Warning: Simulation tolerance relaxed to achieve convergence from 1.4280700357241760e-05 to 1.4280700357242759e-05 seconds.
Warning: Simulation tolerance relaxed to achieve convergence from 1.4280700357242759e-05 to 1.4280700357243759e-05 seconds.
Warning: Simulation tolerance relaxed to achieve convergence from 1.4280700357243759e-05 to 1.4280700357244758e-05 seconds.
Warning: Simulation tolerance relaxed to achieve convergence from 1.4280700357244758e-05 to 1.4280700357245758e-05 seconds.
Warning: Simulation tolerance relaxed to achieve convergence from 1.4280700357245758e-05 to 1.4280700357246757e-05 seconds.
Warning: Simulation tolerance relaxed to achieve convergence from 1.4280700357246757e-05 to 1.4280700357247757e-05 seconds.
Warning: Simulation tolerance relaxed to achieve convergence from 1.4280700357284757e-05 to 1.4280700357285757e-05 seconds.
Warning: Simulation tolerance relaxed to achieve convergence from 1.4280700357306756e-05 to 1.4280700357307756e-05 seconds.
Warning: Simulation tolerance relaxed to achieve convergence from 1.4280700357374754e-05 to 1.4280700357375754e-05 seconds.
Warning: Simulation tolerance relaxed to achieve convergence from 1.4280700357375754e-05 to 1.4280700357376753e-05 seconds.
Warning: Simulation tolerance relaxed to achieve convergence from 1.4280700357376753e-05 to 1.4280700357377753e-05 seconds.
Warning: Simulation tolerance relaxed to achieve convergence from 1.4280700357377753e-05 to 1.4280700357378752e-05 seconds.
Warning: Simulation tolerance relaxed to achieve convergence from 1.4280700357384753e-05 to 1.4280700357385752e-05 seconds.
Warning: Simulation tolerance relaxed to achieve convergence from 1.4280700357401753e-05 to 1.4280700357402752e-05 seconds.
Warning: Simulation tolerance relaxed to achieve convergence from 1.4280700357402752e-05 to 1.4280700357403752e-05 seconds.
Warning: Simulation tolerance relaxed to achieve convergence from 1.4280700357411751e-05 to 1.4280700357412751e-05 seconds.
Warning: Simulation tolerance relaxed to achieve convergence from 1.4280700357412751e-05 to 1.4280700357413750e-05 seconds.
Warning: Simulation tolerance relaxed to achieve convergence from 1.4280700357413750e-05 to 1.4280700357414750e-05 seconds.
Warning: Simulation tolerance relaxed to achieve convergence from 1.4280700357564749e-05 to 1.4280700357565748e-05 seconds.
Warning: Simulation tolerance relaxed to achieve convergence from 1.4280700357879747e-05 to 1.4280700357880746e-05 seconds.
Warning: Simulation tolerance relaxed to achieve convergence from 1.4280700357885746e-05 to 1.4280700357886745e-05 seconds.
Warning: Simulation tolerance relaxed to achieve convergence from 1.4280700357886745e-05 to 1.4280700357887745e-05 seconds.
Warning: Simulation tolerance relaxed to achieve convergence from 1.4280700364630743e-05 to 1.4280700364631743e-05 seconds.
Warning: Simulation tolerance relaxed to achieve convergence from 1.4280700364631743e-05 to 1.4280700364632742e-05 seconds.
Warning: Simulation tolerance relaxed to achieve convergence from 1.4280700364646742e-05 to 1.4280700364647742e-05 seconds.
Warning: Simulation tolerance relaxed to achieve convergence from 1.4280700364780739e-05 to 1.4280700364781739e-05 seconds.
Warning: Simulation tolerance relaxed to achieve convergence from 1.4280700364781739e-05 to 1.4280700364782738e-05 seconds.
Warning: Simulation tolerance relaxed to achieve convergence from 1.4280700364782738e-05 to 1.4280700364783738e-05 seconds.
Warning: Simulation tolerance relaxed to achieve convergence from 1.4280700364790738e-05 to 1.4280700364791737e-05 seconds.
Warning: Simulation tolerance relaxed to achieve convergence from 1.4280700364791737e-05 to 1.4280700364792737e-05 seconds.
Warning: Simulation tolerance relaxed to achieve convergence from 1.4280700364792737e-05 to 1.4280700364793736e-05 seconds.
Warning: Simulation tolerance relaxed to achieve convergence from 1.4280700364802737e-05 to 1.4280700364803736e-05 seconds.
Warning: Simulation tolerance relaxed to achieve convergence from 1.4280700364939734e-05 to 1.4280700364940734e-05 seconds.
Warning: Simulation tolerance relaxed to achieve convergence from 1.4280700364940734e-05 to 1.4280700364941733e-05 seconds.
Warning: Simulation tolerance relaxed to achieve convergence from 1.4280700364941733e-05 to 1.4280700364942733e-05 seconds.
Warning: Simulation tolerance relaxed to achieve convergence from 1.4280700365368731e-05 to 1.4280700365369731e-05 seconds.
Warning: Simulation tolerance relaxed to achieve convergence from 1.4280700365369731e-05 to 1.4280700365370730e-05 seconds.
Warning: Simulation tolerance relaxed to achieve convergence from 1.4280700365370730e-05 to 1.4280700365371730e-05 seconds.
Warning: Simulation tolerance relaxed to achieve convergence from 1.4280700365371730e-05 to 1.4280700365372729e-05 seconds.
Warning: Simulation tolerance relaxed to achieve convergence from 1.4280700365372729e-05 to 1.4280700365373729e-05 seconds.
Warning: Simulation tolerance relaxed to achieve convergence from 1.4280700365466728e-05 to 1.4280700365467727e-05 seconds.
Warning: Simulation tolerance relaxed to achieve convergence from 1.4280700365512727e-05 to 1.4280700365513726e-05 seconds.
Warning: Simulation tolerance relaxed to achieve convergence from 1.4280700365513726e-05 to 1.4280700365514726e-05 seconds.
Warning: Simulation tolerance relaxed to achieve convergence from 1.4280700365514726e-05 to 1.4280700365515725e-05 seconds.
Warning: Simulation tolerance relaxed to achieve convergence from 1.4280700365524726e-05 to 1.4280700365525725e-05 seconds.
Warning: Simulation tolerance relaxed to achieve convergence from 1.4280700365555725e-05 to 1.4280700365556725e-05 seconds.
Warning: Simulation tolerance relaxed to achieve convergence from 1.4280700368224721e-05 to 1.4280700368225721e-05 seconds.
Warning: Simulation tolerance relaxed to achieve convergence from 1.4280700368225721e-05 to 1.4280700368226720e-05 seconds.
Warning: Simulation tolerance relaxed to achieve convergence from 1.4280700368226720e-05 to 1.4280700368227720e-05 seconds.
Warning: Simulation tolerance relaxed to achieve convergence from 1.4280700368227720e-05 to 1.4280700368228719e-05 seconds.
Warning: Simulation tolerance relaxed to achieve convergence from 1.4280700368228719e-05 to 1.4280700368229719e-05 seconds.
Warning: Simulation tolerance relaxed to achieve convergence from 1.4280700368238719e-05 to 1.4280700368239719e-05 seconds.
Warning: Simulation tolerance relaxed to achieve convergence from 1.4280700368239719e-05 to 1.4280700368240718e-05 seconds.
Warning: Simulation tolerance relaxed to achieve convergence from 1.4280700368240718e-05 to 1.4280700368241718e-05 seconds.
Warning: Simulation tolerance relaxed to achieve convergence from 1.4280700368241718e-05 to 1.4280700368242717e-05 seconds.
Warning: Simulation tolerance relaxed to achieve convergence from 1.4280700368242717e-05 to 1.4280700368243717e-05 seconds.
Warning: Simulation tolerance relaxed to achieve convergence from 1.4280700368264716e-05 to 1.4280700368265716e-05 seconds.
Warning: Simulation tolerance relaxed to achieve convergence from 1.4280700368334715e-05 to 1.4280700368335715e-05 seconds.
Warning: Simulation tolerance relaxed to achieve convergence from 1.4280700368335715e-05 to 1.4280700368336714e-05 seconds.
Warning: Simulation tolerance relaxed to achieve convergence from 1.4280700368336714e-05 to 1.4280700368337714e-05 seconds.
Warning: Simulation tolerance relaxed to achieve convergence from 1.4280700368353714e-05 to 1.4280700368354714e-05 seconds.
Warning: Simulation tolerance relaxed to achieve convergence from 1.4280700368361714e-05 to 1.4280700368362713e-05 seconds.
Warning: Simulation tolerance relaxed to achieve convergence from 1.4280700368362713e-05 to 1.4280700368363713e-05 seconds.
Warning: Simulation tolerance relaxed to achieve convergence from 1.4280700368363713e-05 to 1.4280700368364712e-05 seconds.
Warning: Simulation tolerance relaxed to achieve convergence from 1.4280700368370712e-05 to 1.4280700368371712e-05 seconds.
Warning: Simulation tolerance relaxed to achieve convergence from 1.4280700368385712e-05 to 1.4280700368386711e-05 seconds.
Warning: Simulation tolerance relaxed to achieve convergence from 1.4280700368386711e-05 to 1.4280700368387711e-05 seconds.
Warning: Simulation tolerance relaxed to achieve convergence from 1.4280700368387711e-05 to 1.4280700368388710e-05 seconds.
Warning: Simulation tolerance relaxed to achieve convergence from 1.4280700368388710e-05 to 1.4280700368389710e-05 seconds.
Warning: Simulation tolerance relaxed to achieve convergence from 1.4280700368389710e-05 to 1.4280700368390709e-05 seconds.
Warning: Simulation tolerance relaxed to achieve convergence from 1.4280700368390709e-05 to 1.4280700368391709e-05 seconds.
Warning: Simulation tolerance relaxed to achieve convergence from 1.4280700368407707e-05 to 1.4280700368408707e-05 seconds.
Warning: Simulation tolerance relaxed to achieve convergence from 1.4280700368465707e-05 to 1.4280700368466707e-05 seconds.
Warning: Simulation tolerance relaxed to achieve convergence from 1.4280700368466707e-05 to 1.4280700368467706e-05 seconds.
Warning: Simulation tolerance relaxed to achieve convergence from 1.4280700368467706e-05 to 1.4280700368468706e-05 seconds.
Warning: Simulation tolerance relaxed to achieve convergence from 1.4280700370039703e-05 to 1.4280700370040702e-05 seconds.
Warning: Simulation tolerance relaxed to achieve convergence from 1.4280700370041702e-05 to 1.4280700370042701e-05 seconds.
Warning: Simulation tolerance relaxed to achieve convergence from 1.4280700370042701e-05 to 1.4280700370043701e-05 seconds.
Warning: Simulation tolerance relaxed to achieve convergence from 1.4280700370043701e-05 to 1.4280700370044700e-05 seconds.
Warning: Simulation tolerance relaxed to achieve convergence from 1.4280700370050701e-05 to 1.4280700370051700e-05 seconds.
Warning: Simulation tolerance relaxed to achieve convergence from 1.4280700370053701e-05 to 1.4280700370054700e-05 seconds.
Warning: Simulation tolerance relaxed to achieve convergence from 1.4280700371307691e-05 to 1.4280700371308690e-05 seconds.
Warning: Simulation tolerance relaxed to achieve convergence from 1.4280700371308690e-05 to 1.4280700371309690e-05 seconds.
Warning: Simulation tolerance relaxed to achieve convergence from 1.4280700371373690e-05 to 1.4280700371374689e-05 seconds.
Warning: Simulation tolerance relaxed to achieve convergence from 1.4280700371380690e-05 to 1.4280700371381689e-05 seconds.
Warning: Simulation tolerance relaxed to achieve convergence from 1.4280700371381689e-05 to 1.4280700371382689e-05 seconds.
Warning: Simulation tolerance relaxed to achieve convergence from 1.4280700371382689e-05 to 1.4280700371383688e-05 seconds.
Warning: Simulation tolerance relaxed to achieve convergence from 1.4280700371389689e-05 to 1.4280700371390688e-05 seconds.
Warning: Simulation tolerance relaxed to achieve convergence from 1.4280700371390688e-05 to 1.4280700371391688e-05 seconds.
Warning: Simulation tolerance relaxed to achieve convergence from 1.4280700371391688e-05 to 1.4280700371392687e-05 seconds.
Warning: Simulation tolerance relaxed to achieve convergence from 1.4280700371392687e-05 to 1.4280700371393687e-05 seconds.
Warning: Simulation tolerance relaxed to achieve convergence from 1.4280700371412687e-05 to 1.4280700371413687e-05 seconds.
Warning: Simulation tolerance relaxed to achieve convergence from 1.4280700371413687e-05 to 1.4280700371414686e-05 seconds.
Warning: Simulation tolerance relaxed to achieve convergence from 1.4280700371414686e-05 to 1.4280700371415686e-05 seconds.
Warning: Simulation tolerance relaxed to achieve convergence from 1.4280700371415686e-05 to 1.4280700371416685e-05 seconds.
Warning: Simulation tolerance relaxed to achieve convergence from 1.4280700371506684e-05 to 1.4280700371507684e-05 seconds.
Warning: Simulation tolerance relaxed to achieve convergence from 1.4280700371507684e-05 to 1.4280700371508683e-05 seconds.
Warning: Simulation tolerance relaxed to achieve convergence from 1.4280700371508683e-05 to 1.4280700371509683e-05 seconds.
Warning: Simulation tolerance relaxed to achieve convergence from 1.4280700371509683e-05 to 1.4280700371510682e-05 seconds.
Warning: Simulation tolerance relaxed to achieve convergence from 1.4280700371526683e-05 to 1.4280700371527682e-05 seconds.
Warning: Simulation tolerance relaxed to achieve convergence from 1.4280700371527682e-05 to 1.4280700371528682e-05 seconds.
Warning: Simulation tolerance relaxed to achieve convergence from 1.4280700371534682e-05 to 1.4280700371535682e-05 seconds.
Warning: Simulation tolerance relaxed to achieve convergence from 1.4280700371579681e-05 to 1.4280700371580681e-05 seconds.
Warning: Simulation tolerance relaxed to achieve convergence from 1.4280700371580681e-05 to 1.4280700371581680e-05 seconds.
Warning: Simulation tolerance relaxed to achieve convergence from 1.4280700371581680e-05 to 1.4280700371582680e-05 seconds.
Warning: Simulation tolerance relaxed to achieve convergence from 1.4280700371582680e-05 to 1.4280700371583679e-05 seconds.
Warning: Simulation tolerance relaxed to achieve convergence from 1.4280700371583679e-05 to 1.4280700371584679e-05 seconds.
Warning: Simulation tolerance relaxed to achieve convergence from 1.4280700371772676e-05 to 1.4280700371773676e-05 seconds.
Warning: Simulation tolerance relaxed to achieve convergence from 1.4280700371773676e-05 to 1.4280700371774675e-05 seconds.
Warning: Simulation tolerance relaxed to achieve convergence from 1.4280700371774675e-05 to 1.4280700371775675e-05 seconds.
Warning: Simulation tolerance relaxed to achieve convergence from 1.4280700371775675e-05 to 1.4280700371776674e-05 seconds.
Warning: Simulation tolerance relaxed to achieve convergence from 1.4280700371851671e-05 to 1.4280700371852670e-05 seconds.
Warning: Simulation tolerance relaxed to achieve convergence from 1.4280700372173668e-05 to 1.4280700372174668e-05 seconds.
Warning: Simulation tolerance relaxed to achieve convergence from 1.4280700372190668e-05 to 1.4280700372191668e-05 seconds.
Warning: Simulation tolerance relaxed to achieve convergence from 1.4280700372191668e-05 to 1.4280700372192667e-05 seconds.
Warning: Simulation tolerance relaxed to achieve convergence from 1.4280700372199667e-05 to 1.4280700372200667e-05 seconds.
Warning: Simulation tolerance relaxed to achieve convergence from 1.4280700372200667e-05 to 1.4280700372201666e-05 seconds.
Warning: Simulation tolerance relaxed to achieve convergence from 1.4280700372201666e-05 to 1.4280700372202666e-05 seconds.
Warning: Simulation tolerance relaxed to achieve convergence from 1.4280700372228665e-05 to 1.4280700372229664e-05 seconds.
Warning: Simulation tolerance relaxed to achieve convergence from 1.4280700372245665e-05 to 1.4280700372246664e-05 seconds.
Warning: Simulation tolerance relaxed to achieve convergence from 1.4280700372246664e-05 to 1.4280700372247664e-05 seconds.
Warning: Simulation tolerance relaxed to achieve convergence from 1.4280700372256664e-05 to 1.4280700372257664e-05 seconds.
Warning: Simulation tolerance relaxed to achieve convergence from 1.4280700372257664e-05 to 1.4280700372258663e-05 seconds.
Warning: Simulation tolerance relaxed to achieve convergence from 1.4280700372326661e-05 to 1.4280700372327661e-05 seconds.
Warning: Simulation tolerance relaxed to achieve convergence from 1.4280700372518656e-05 to 1.4280700372519656e-05 seconds.
Warning: Simulation tolerance relaxed to achieve convergence from 1.4280700372542656e-05 to 1.4280700372543656e-05 seconds.
Warning: Simulation tolerance relaxed to achieve convergence from 1.4280700383242654e-05 to 1.4280700383243654e-05 seconds.
Warning: Simulation tolerance relaxed to achieve convergence from 1.4280700383250654e-05 to 1.4280700383251653e-05 seconds.
Warning: Simulation tolerance relaxed to achieve convergence from 1.4280700383251653e-05 to 1.4280700383252653e-05 seconds.
Warning: Simulation tolerance relaxed to achieve convergence from 1.4280700384724655e-05 to 1.4280700384725655e-05 seconds.
Warning: Simulation tolerance relaxed to achieve convergence from 1.4280700384725655e-05 to 1.4280700384726654e-05 seconds.
Warning: Simulation tolerance relaxed to achieve convergence from 1.4280700385611651e-05 to 1.4280700385612651e-05 seconds.
Warning: Simulation tolerance relaxed to achieve convergence from 1.4280700385612651e-05 to 1.4280700385613650e-05 seconds.
Warning: Simulation tolerance relaxed to achieve convergence from 1.4280700385613650e-05 to 1.4280700385614650e-05 seconds.
Warning: Simulation tolerance relaxed to achieve convergence from 1.4280700385614650e-05 to 1.4280700385615649e-05 seconds.
Warning: Simulation tolerance relaxed to achieve convergence from 1.4280700385615649e-05 to 1.4280700385616649e-05 seconds.
Warning: Simulation tolerance relaxed to achieve convergence from 1.4280700385616649e-05 to 1.4280700385617648e-05 seconds.
Warning: Simulation tolerance relaxed to achieve convergence from 1.4280700385617648e-05 to 1.4280700385618648e-05 seconds.
Warning: Simulation tolerance relaxed to achieve convergence from 1.4280700385618648e-05 to 1.4280700385619647e-05 seconds.
Warning: Simulation tolerance relaxed to achieve convergence from 1.4280700385619647e-05 to 1.4280700385620647e-05 seconds.
Warning: Simulation tolerance relaxed to achieve convergence from 1.4280700385650647e-05 to 1.4280700385651647e-05 seconds.
Warning: Simulation tolerance relaxed to achieve convergence from 1.4280700385810646e-05 to 1.4280700385811646e-05 seconds.
Warning: Simulation tolerance relaxed to achieve convergence from 1.4280700385817646e-05 to 1.4280700385818646e-05 seconds.
Warning: Simulation tolerance relaxed to achieve convergence from 1.4280700385818646e-05 to 1.4280700385819645e-05 seconds.
Warning: Simulation tolerance relaxed to achieve convergence from 1.4280700386024644e-05 to 1.4280700386025644e-05 seconds.
Warning: Simulation tolerance relaxed to achieve convergence from 1.4280700386026643e-05 to 1.4280700386027643e-05 seconds.
Warning: Simulation tolerance relaxed to achieve convergence from 1.4280700386027643e-05 to 1.4280700386028642e-05 seconds.
Warning: Simulation tolerance relaxed to achieve convergence from 1.4280700386028642e-05 to 1.4280700386029642e-05 seconds.
Warning: Simulation tolerance relaxed to achieve convergence from 1.4280700386200639e-05 to 1.4280700386201639e-05 seconds.
Warning: Simulation tolerance relaxed to achieve convergence from 1.4280700386201639e-05 to 1.4280700386202638e-05 seconds.
Warning: Simulation tolerance relaxed to achieve convergence from 1.4280700386202638e-05 to 1.4280700386203638e-05 seconds.
Warning: Simulation tolerance relaxed to achieve convergence from 1.4280700386203638e-05 to 1.4280700386204637e-05 seconds.
Warning: Simulation tolerance relaxed to achieve convergence from 1.4280700386204637e-05 to 1.4280700386205637e-05 seconds.
Warning: Simulation tolerance relaxed to achieve convergence from 1.4280700398589634e-05 to 1.4280700398590634e-05 seconds.
Warning: Simulation tolerance relaxed to achieve convergence from 1.4280700398590634e-05 to 1.4280700398591633e-05 seconds.
Warning: Simulation tolerance relaxed to achieve convergence from 1.4280700398591633e-05 to 1.4280700398592633e-05 seconds.
Warning: Simulation tolerance relaxed to achieve convergence from 1.4280700398665632e-05 to 1.4280700398666631e-05 seconds.
Warning: Simulation tolerance relaxed to achieve convergence from 1.4280700398666631e-05 to 1.4280700398667631e-05 seconds.
Warning: Simulation tolerance relaxed to achieve convergence from 1.4280700398667631e-05 to 1.4280700398668630e-05 seconds.
Warning: Simulation tolerance relaxed to achieve convergence from 1.4280700398737630e-05 to 1.4280700398738629e-05 seconds.
Warning: Simulation tolerance relaxed to achieve convergence from 1.4280700398738629e-05 to 1.4280700398739629e-05 seconds.
Warning: Simulation tolerance relaxed to achieve convergence from 1.4280700398739629e-05 to 1.4280700398740628e-05 seconds.
Warning: Simulation tolerance relaxed to achieve convergence from 1.4280700398749629e-05 to 1.4280700398750628e-05 seconds.
Warning: Simulation tolerance relaxed to achieve convergence from 1.4280700398760628e-05 to 1.4280700398761628e-05 seconds.
Warning: Simulation tolerance relaxed to achieve convergence from 1.4280700398911627e-05 to 1.4280700398912627e-05 seconds.
Warning: Simulation tolerance relaxed to achieve convergence from 1.4280700398912627e-05 to 1.4280700398913626e-05 seconds.
Warning: Simulation tolerance relaxed to achieve convergence from 1.4280700398913626e-05 to 1.4280700398914626e-05 seconds.
Warning: Simulation tolerance relaxed to achieve convergence from 1.4280700398914626e-05 to 1.4280700398915625e-05 seconds.
Warning: Simulation tolerance relaxed to achieve convergence from 1.4280700405268623e-05 to 1.4280700405269622e-05 seconds.
Warning: Simulation tolerance relaxed to achieve convergence from 1.4280700405269622e-05 to 1.4280700405270622e-05 seconds.
Warning: Simulation tolerance relaxed to achieve convergence from 1.4280700405279623e-05 to 1.4280700405280622e-05 seconds.
Warning: Simulation tolerance relaxed to achieve convergence from 1.4280700405510620e-05 to 1.4280700405511620e-05 seconds.
Warning: Simulation tolerance relaxed to achieve convergence from 1.4280700405770615e-05 to 1.4280700405771615e-05 seconds.
Warning: Simulation tolerance relaxed to achieve convergence from 1.4280700405771615e-05 to 1.4280700405772614e-05 seconds.
Warning: Simulation tolerance relaxed to achieve convergence from 1.4280700405778615e-05 to 1.4280700405779614e-05 seconds.
Warning: Simulation tolerance relaxed to achieve convergence from 1.4280700405779614e-05 to 1.4280700405780614e-05 seconds.
Warning: Simulation tolerance relaxed to achieve convergence from 1.4280700405780614e-05 to 1.4280700405781613e-05 seconds.
Warning: Simulation tolerance relaxed to achieve convergence from 1.4280700405781613e-05 to 1.4280700405782613e-05 seconds.
Warning: Simulation tolerance relaxed to achieve convergence from 1.4280700405948609e-05 to 1.4280700405949609e-05 seconds.
Warning: Simulation tolerance relaxed to achieve convergence from 1.4280700405949609e-05 to 1.4280700405950608e-05 seconds.
Warning: Simulation tolerance relaxed to achieve convergence from 1.4280700405950608e-05 to 1.4280700405951608e-05 seconds.
Warning: Simulation tolerance relaxed to achieve convergence from 1.4280700406216607e-05 to 1.4280700406217606e-05 seconds.
Warning: Simulation tolerance relaxed to achieve convergence from 1.4280700406217606e-05 to 1.4280700406218606e-05 seconds.
Warning: Simulation tolerance relaxed to achieve convergence from 1.4280700406218606e-05 to 1.4280700406219605e-05 seconds.
Warning: Simulation tolerance relaxed to achieve convergence from 1.4280700406456604e-05 to 1.4280700406457603e-05 seconds.
Warning: Simulation tolerance relaxed to achieve convergence from 1.4280700406457603e-05 to 1.4280700406458603e-05 seconds.
Warning: Simulation tolerance relaxed to achieve convergence from 1.4280700406458603e-05 to 1.4280700406459602e-05 seconds.
Warning: Simulation tolerance relaxed to achieve convergence from 1.4280700406596600e-05 to 1.4280700406597599e-05 seconds.
Warning: Simulation tolerance relaxed to achieve convergence from 1.4280700406604599e-05 to 1.4280700406605598e-05 seconds.
Warning: Simulation tolerance relaxed to achieve convergence from 1.4280700406605598e-05 to 1.4280700406606598e-05 seconds.
Warning: Simulation tolerance relaxed to achieve convergence from 1.4280700406680598e-05 to 1.4280700406681598e-05 seconds.
Warning: Simulation tolerance relaxed to achieve convergence from 1.4280700406681598e-05 to 1.4280700406682597e-05 seconds.
Warning: Simulation tolerance relaxed to achieve convergence from 1.4280700406682597e-05 to 1.4280700406683597e-05 seconds.
Warning: Simulation tolerance relaxed to achieve convergence from 1.4280700406683597e-05 to 1.4280700406684596e-05 seconds.
Warning: Simulation tolerance relaxed to achieve convergence from 1.4280700406924594e-05 to 1.4280700406925594e-05 seconds.
Warning: Simulation tolerance relaxed to achieve convergence from 1.4280700406925594e-05 to 1.4280700406926593e-05 seconds.
Warning: Simulation tolerance relaxed to achieve convergence from 1.4280700406926593e-05 to 1.4280700406927593e-05 seconds.
Warning: Simulation tolerance relaxed to achieve convergence from 1.4280700406933593e-05 to 1.4280700406934593e-05 seconds.
Warning: Simulation tolerance relaxed to achieve convergence from 1.4280700406940593e-05 to 1.4280700406941593e-05 seconds.
Warning: Simulation tolerance relaxed to achieve convergence from 1.4280700406941593e-05 to 1.4280700406942592e-05 seconds.
Warning: Simulation tolerance relaxed to achieve convergence from 1.4280700406942592e-05 to 1.4280700406943592e-05 seconds.
Warning: Simulation tolerance relaxed to achieve convergence from 1.4280700406949592e-05 to 1.4280700406950592e-05 seconds.
Warning: Simulation tolerance relaxed to achieve convergence from 1.4280700406950592e-05 to 1.4280700406951591e-05 seconds.
Warning: Simulation tolerance relaxed to achieve convergence from 1.4280700406960592e-05 to 1.4280700406961591e-05 seconds.
Warning: Simulation tolerance relaxed to achieve convergence from 1.4280700406970592e-05 to 1.4280700406971591e-05 seconds.
Warning: Simulation tolerance relaxed to achieve convergence from 1.4280700406971591e-05 to 1.4280700406972591e-05 seconds.
Warning: Simulation tolerance relaxed to achieve convergence from 1.4280700406981591e-05 to 1.4280700406982591e-05 seconds.
Warning: Simulation tolerance relaxed to achieve convergence from 1.4280700406988591e-05 to 1.4280700406989591e-05 seconds.
Warning: Simulation tolerance relaxed to achieve convergence from 1.4280700406995591e-05 to 1.4280700406996590e-05 seconds.
Warning: Simulation tolerance relaxed to achieve convergence from 1.4280700406996590e-05 to 1.4280700406997590e-05 seconds.
Warning: Simulation tolerance relaxed to achieve convergence from 1.4280700407003590e-05 to 1.4280700407004590e-05 seconds.
Warning: Simulation tolerance relaxed to achieve convergence from 1.4280700407786589e-05 to 1.4280700407787589e-05 seconds.
Warning: Simulation tolerance relaxed to achieve convergence from 1.4280700407787589e-05 to 1.4280700407788588e-05 seconds.
Warning: Simulation tolerance relaxed to achieve convergence from 1.4280700407795588e-05 to 1.4280700407796588e-05 seconds.
Warning: Simulation tolerance relaxed to achieve convergence from 1.4280700407796588e-05 to 1.4280700407797587e-05 seconds.
Warning: Simulation tolerance relaxed to achieve convergence from 1.4280700414456586e-05 to 1.4280700414457585e-05 seconds.
Warning: Simulation tolerance relaxed to achieve convergence from 1.4280700414468585e-05 to 1.4280700414469584e-05 seconds.
Warning: Simulation tolerance relaxed to achieve convergence from 1.4280700414469584e-05 to 1.4280700414470584e-05 seconds.
Warning: Simulation tolerance relaxed to achieve convergence from 1.4280700414470584e-05 to 1.4280700414471583e-05 seconds.
Warning: Simulation tolerance relaxed to achieve convergence from 1.4280700414471583e-05 to 1.4280700414472583e-05 seconds.
Warning: Simulation tolerance relaxed to achieve convergence from 1.4280700414478582e-05 to 1.4280700414479581e-05 seconds.
Warning: Simulation tolerance relaxed to achieve convergence from 1.4280700414479581e-05 to 1.4280700414480581e-05 seconds.
Warning: Simulation tolerance relaxed to achieve convergence from 1.4280700414480581e-05 to 1.4280700414481580e-05 seconds.
Warning: Simulation tolerance relaxed to achieve convergence from 1.4280700414481580e-05 to 1.4280700414482580e-05 seconds.
Warning: Simulation tolerance relaxed to achieve convergence from 1.4280700414482580e-05 to 1.4280700414483579e-05 seconds.
Warning: Simulation tolerance relaxed to achieve convergence from 1.4280700414483579e-05 to 1.4280700414484579e-05 seconds.
Warning: Simulation tolerance relaxed to achieve convergence from 1.4280700414484579e-05 to 1.4280700414485578e-05 seconds.
Warning: Simulation tolerance relaxed to achieve convergence from 1.4280700414485578e-05 to 1.4280700414486578e-05 seconds.
Warning: Simulation tolerance relaxed to achieve convergence from 1.4280700414555577e-05 to 1.4280700414556576e-05 seconds.
Warning: Simulation tolerance relaxed to achieve convergence from 1.4280700414556576e-05 to 1.4280700414557576e-05 seconds.
Warning: Simulation tolerance relaxed to achieve convergence from 1.4280700414557576e-05 to 1.4280700414558575e-05 seconds.
Warning: Simulation tolerance relaxed to achieve convergence from 1.4280700414558575e-05 to 1.4280700414559575e-05 seconds.
Warning: Simulation tolerance relaxed to achieve convergence from 1.4280700415434573e-05 to 1.4280700415435573e-05 seconds.
Warning: Simulation tolerance relaxed to achieve convergence from 1.4280700417157571e-05 to 1.4280700417158570e-05 seconds.
Warning: Simulation tolerance relaxed to achieve convergence from 1.4280700417158570e-05 to 1.4280700417159570e-05 seconds.
Warning: Simulation tolerance relaxed to achieve convergence from 1.4280700417159570e-05 to 1.4280700417160569e-05 seconds.
Warning: Simulation tolerance relaxed to achieve convergence from 1.4280700417446568e-05 to 1.4280700417447568e-05 seconds.
Warning: Simulation tolerance relaxed to achieve convergence from 1.4280700417447568e-05 to 1.4280700417448567e-05 seconds.
Warning: Simulation tolerance relaxed to achieve convergence from 1.4280700417457566e-05 to 1.4280700417458565e-05 seconds.
Warning: Simulation tolerance relaxed to achieve convergence from 1.4280700417834562e-05 to 1.4280700417835561e-05 seconds.
Warning: Simulation tolerance relaxed to achieve convergence from 1.4280700417835561e-05 to 1.4280700417836561e-05 seconds.
Warning: Simulation tolerance relaxed to achieve convergence from 1.4280700417836561e-05 to 1.4280700417837560e-05 seconds.
Warning: Simulation tolerance relaxed to achieve convergence from 1.4280700417837560e-05 to 1.4280700417838560e-05 seconds.
Warning: Simulation tolerance relaxed to achieve convergence from 1.4280700417844560e-05 to 1.4280700417845560e-05 seconds.
Warning: Simulation tolerance relaxed to achieve convergence from 1.4280700417845560e-05 to 1.4280700417846559e-05 seconds.
Warning: Simulation tolerance relaxed to achieve convergence from 1.4280700417852559e-05 to 1.4280700417853559e-05 seconds.
Warning: Simulation tolerance relaxed to achieve convergence from 1.4280700417869559e-05 to 1.4280700417870559e-05 seconds.
Warning: Simulation tolerance relaxed to achieve convergence from 1.4280700419568557e-05 to 1.4280700419569556e-05 seconds.
Warning: Simulation tolerance relaxed to achieve convergence from 1.4280700419569556e-05 to 1.4280700419570556e-05 seconds.
Warning: Simulation tolerance relaxed to achieve convergence from 1.4280700419570556e-05 to 1.4280700419571555e-05 seconds.
Warning: Simulation tolerance relaxed to achieve convergence from 1.4280700419588555e-05 to 1.4280700419589555e-05 seconds.
Warning: Simulation tolerance relaxed to achieve convergence from 1.4280700425137553e-05 to 1.4280700425138552e-05 seconds.
Warning: Simulation tolerance relaxed to achieve convergence from 1.4280700425138552e-05 to 1.4280700425139552e-05 seconds.
Warning: Simulation tolerance relaxed to achieve convergence from 1.4280700425139552e-05 to 1.4280700425140551e-05 seconds.
Warning: Simulation tolerance relaxed to achieve convergence from 1.4280700425140551e-05 to 1.4280700425141551e-05 seconds.
Warning: Simulation tolerance relaxed to achieve convergence from 1.4280700449653544e-05 to 1.4280700449654544e-05 seconds.
Warning: Simulation tolerance relaxed to achieve convergence from 1.4280700449654544e-05 to 1.4280700449655543e-05 seconds.
Warning: Simulation tolerance relaxed to achieve convergence from 1.4280700449655543e-05 to 1.4280700449656543e-05 seconds.
Warning: Simulation tolerance relaxed to achieve convergence from 1.4280700449798543e-05 to 1.4280700449799542e-05 seconds.
Warning: Simulation tolerance relaxed to achieve convergence from 1.4280700449805542e-05 to 1.4280700449806542e-05 seconds.
Warning: Simulation tolerance relaxed to achieve convergence from 1.4280700449806542e-05 to 1.4280700449807541e-05 seconds.
Warning: Simulation tolerance relaxed to achieve convergence from 1.4280700449807541e-05 to 1.4280700449808541e-05 seconds.
Warning: Simulation tolerance relaxed to achieve convergence from 1.4280700450074542e-05 to 1.4280700450075541e-05 seconds.
Warning: Simulation tolerance relaxed to achieve convergence from 1.4280700450075541e-05 to 1.4280700450076541e-05 seconds.
Warning: Simulation tolerance relaxed to achieve convergence from 1.4280700450076541e-05 to 1.4280700450077540e-05 seconds.
Warning: Simulation tolerance relaxed to achieve convergence from 1.4280700450077540e-05 to 1.4280700450078540e-05 seconds.
Warning: Simulation tolerance relaxed to achieve convergence from 1.4280700609055539e-05 to 1.4280700609056539e-05 seconds.
Warning: Simulation tolerance relaxed to achieve convergence from 1.4280700609056539e-05 to 1.4280700609057538e-05 seconds.
Warning: Simulation tolerance relaxed to achieve convergence from 1.4280700614401532e-05 to 1.4280700614402531e-05 seconds.
Warning: Simulation tolerance relaxed to achieve convergence from 1.4280700614402531e-05 to 1.4280700614403531e-05 seconds.
Warning: Simulation tolerance relaxed to achieve convergence from 1.4280700614403531e-05 to 1.4280700614404530e-05 seconds.
Warning: Simulation tolerance relaxed to achieve convergence from 1.4280700614404530e-05 to 1.4280700614405530e-05 seconds.
Warning: Simulation tolerance relaxed to achieve convergence from 1.4280700614405530e-05 to 1.4280700614406529e-05 seconds.
Warning: Simulation tolerance relaxed to achieve convergence from 1.4280700614406529e-05 to 1.4280700614407529e-05 seconds.
Warning: Simulation tolerance relaxed to achieve convergence from 1.4280700614407529e-05 to 1.4280700614408528e-05 seconds.
Warning: Simulation tolerance relaxed to achieve convergence from 1.4280700614415528e-05 to 1.4280700614416528e-05 seconds.
Warning: Simulation tolerance relaxed to achieve convergence from 1.4280700614416528e-05 to 1.4280700614417527e-05 seconds.
Warning: Simulation tolerance relaxed to achieve convergence from 1.4280700614417527e-05 to 1.4280700614418527e-05 seconds.
Warning: Simulation tolerance relaxed to achieve convergence from 1.4280700615445525e-05 to 1.4280700615446525e-05 seconds.
Warning: Simulation tolerance relaxed to achieve convergence from 1.4280700615452525e-05 to 1.4280700615453525e-05 seconds.
Warning: Simulation tolerance relaxed to achieve convergence from 1.4280700615453525e-05 to 1.4280700615454524e-05 seconds.
Warning: Simulation tolerance relaxed to achieve convergence from 1.4280700615454524e-05 to 1.4280700615455524e-05 seconds.
Warning: Simulation tolerance relaxed to achieve convergence from 1.4280700615455524e-05 to 1.4280700615456523e-05 seconds.
Warning: Simulation tolerance relaxed to achieve convergence from 1.4280700615456523e-05 to 1.4280700615457523e-05 seconds.
Warning: Simulation tolerance relaxed to achieve convergence from 1.4280700621448519e-05 to 1.4280700621449519e-05 seconds.
Warning: Simulation tolerance relaxed to achieve convergence from 1.4280700621449519e-05 to 1.4280700621450518e-05 seconds.
Warning: Simulation tolerance relaxed to achieve convergence from 1.4280700621450518e-05 to 1.4280700621451518e-05 seconds.
Warning: Simulation tolerance relaxed to achieve convergence from 1.4280700621521516e-05 to 1.4280700621522516e-05 seconds.
Warning: Simulation tolerance relaxed to achieve convergence from 1.4280700621522516e-05 to 1.4280700621523515e-05 seconds.
Warning: Simulation tolerance relaxed to achieve convergence from 1.4280700621523515e-05 to 1.4280700621524515e-05 seconds.
Warning: Simulation tolerance relaxed to achieve convergence from 1.4280700621524515e-05 to 1.4280700621525514e-05 seconds.
Warning: Simulation tolerance relaxed to achieve convergence from 1.4280700621541515e-05 to 1.4280700621542514e-05 seconds.
Warning: Simulation tolerance relaxed to achieve convergence from 1.4280700621562515e-05 to 1.4280700621563514e-05 seconds.
Warning: Simulation tolerance relaxed to achieve convergence from 1.4280700621566514e-05 to 1.4280700621567514e-05 seconds.
Warning: Simulation tolerance relaxed to achieve convergence from 1.4280700621574514e-05 to 1.4280700621575513e-05 seconds.
Warning: Simulation tolerance relaxed to achieve convergence from 1.4280700621575513e-05 to 1.4280700621576513e-05 seconds.
Warning: Simulation tolerance relaxed to achieve convergence from 1.4280700621576513e-05 to 1.4280700621577512e-05 seconds.
Warning: Simulation tolerance relaxed to achieve convergence from 1.4280700621649510e-05 to 1.4280700621650509e-05 seconds.
Warning: Simulation tolerance relaxed to achieve convergence from 1.4280700621650509e-05 to 1.4280700621651509e-05 seconds.
Warning: Simulation tolerance relaxed to achieve convergence from 1.4280700621657509e-05 to 1.4280700621658509e-05 seconds.
Warning: Simulation tolerance relaxed to achieve convergence from 1.4280700621658509e-05 to 1.4280700621659508e-05 seconds.
Warning: Simulation tolerance relaxed to achieve convergence from 1.4280700621659508e-05 to 1.4280700621660508e-05 seconds.
Warning: Simulation tolerance relaxed to achieve convergence from 1.4280700621660508e-05 to 1.4280700621661507e-05 seconds.
Warning: Simulation tolerance relaxed to achieve convergence from 1.4280700622002506e-05 to 1.4280700622003505e-05 seconds.
Warning: Simulation tolerance relaxed to achieve convergence from 1.4280700622003505e-05 to 1.4280700622004505e-05 seconds.
Warning: Simulation tolerance relaxed to achieve convergence from 1.4280700622004505e-05 to 1.4280700622005504e-05 seconds.
Warning: Simulation tolerance relaxed to achieve convergence from 1.4280700622005504e-05 to 1.4280700622006504e-05 seconds.
Warning: Simulation tolerance relaxed to achieve convergence from 1.4280700622006504e-05 to 1.4280700622007503e-05 seconds.
Warning: Simulation tolerance relaxed to achieve convergence from 1.4280700636237499e-05 to 1.4280700636238499e-05 seconds.
Warning: Simulation tolerance relaxed to achieve convergence from 1.4280700636238499e-05 to 1.4280700636239498e-05 seconds.
Warning: Simulation tolerance relaxed to achieve convergence from 1.4280700636239498e-05 to 1.4280700636240498e-05 seconds.
Warning: Simulation tolerance relaxed to achieve convergence from 1.4280700636246498e-05 to 1.4280700636247498e-05 seconds.
Warning: Simulation tolerance relaxed to achieve convergence from 1.4280700636247498e-05 to 1.4280700636248497e-05 seconds.
[...]
Warning: Simulation tolerance relaxed to achieve convergence from 1.4280759510834373e-05 to 1.4280759510835372e-05 seconds.
Warning: Simulation tolerance relaxed to achieve convergence from 1.4280759510835372e-05 to 1.4280759510836372e-05 seconds.
Warning: Simulation tolerance relaxed to achieve convergence from 1.4280759510851371e-05 to 1.4280759510852371e-05 seconds.
Warning: Simulation tolerance relaxed to achieve convergence from 1.4280759510852371e-05 to 1.4280759510853370e-05 seconds.
Warning: Simulation tolerance relaxed to achieve convergence from 1.4280759510853370e-05 to 1.4280759510854370e-05 seconds.
Warning: Simulation tolerance relaxed to achieve convergence from 1.4280759510854370e-05 to 1.4280759510855369e-05 seconds.
Warning: Simulation tolerance relaxed to achieve convergence from 1.4280759510855369e-05 to 1.4280759510856369e-05 seconds.
Warning: Simulation tolerance relaxed to achieve convergence from 1.4280759510856369e-05 to 1.4280759510857368e-05 seconds.
Warning: Simulation tolerance relaxed to achieve convergence from 1.4280759510857368e-05 to 1.4280759510858368e-05 seconds.
Warning: Simulation tolerance relaxed to achieve convergence from 1.4280759510858368e-05 to 1.4280759510859367e-05 seconds.
Warning: Simulation tolerance relaxed to achieve convergence from 1.4280759511657367e-05 to 1.4280759511658366e-05 seconds.
Warning: Simulation tolerance relaxed to achieve convergence from 1.4280759511658366e-05 to 1.4280759511659366e-05 seconds.
Warning: Simulation tolerance relaxed to achieve convergence from 1.4280759511659366e-05 to 1.4280759511660365e-05 seconds.
Warning: Simulation tolerance relaxed to achieve convergence from 1.4280759511660365e-05 to 1.4280759511661365e-05 seconds.
Warning: Simulation tolerance relaxed to achieve convergence from 1.4280759511661365e-05 to 1.4280759511662364e-05 seconds.
Warning: Simulation tolerance relaxed to achieve convergence from 1.4280759514488363e-05 to 1.4280759514489362e-05 seconds.
Warning: Simulation tolerance relaxed to achieve convergence from 1.4280759514489362e-05 to 1.4280759514490362e-05 seconds.
Warning: Simulation tolerance relaxed to achieve convergence from 1.4280759514490362e-05 to 1.4280759514491361e-05 seconds.
Warning: Simulation tolerance relaxed to achieve convergence from 1.4280759514491361e-05 to 1.4280759514492361e-05 seconds.
Warning: Simulation tolerance relaxed to achieve convergence from 1.4280759514492361e-05 to 1.4280759514493360e-05 seconds.
Warning: Simulation tolerance relaxed to achieve convergence from 1.4280759514542359e-05 to 1.4280759514543359e-05 seconds.
Warning: Simulation tolerance relaxed to achieve convergence from 1.4280759514543359e-05 to 1.4280759514544358e-05 seconds.
Warning: Simulation tolerance relaxed to achieve convergence from 1.4280759514544358e-05 to 1.4280759514545358e-05 seconds.
Warning: Simulation tolerance relaxed to achieve convergence from 1.4280759514545358e-05 to 1.4280759514546357e-05 seconds.
Warning: Simulation tolerance relaxed to achieve convergence from 1.4280759514567357e-05 to 1.4280759514568357e-05 seconds.
Warning: Simulation tolerance relaxed to achieve convergence from 1.4280759514568357e-05 to 1.4280759514569356e-05 seconds.
Warning: Simulation tolerance relaxed to achieve convergence from 1.4280759514569356e-05 to 1.4280759514570356e-05 seconds.
Warning: Simulation tolerance relaxed to achieve convergence from 1.4280759514570356e-05 to 1.4280759514571355e-05 seconds.
Warning: Simulation tolerance relaxed to achieve convergence from 1.4280759514571355e-05 to 1.4280759514572355e-05 seconds.
Warning: Simulation tolerance relaxed to achieve convergence from 1.4280759514572355e-05 to 1.4280759514573354e-05 seconds.
Warning: Simulation tolerance relaxed to achieve convergence from 1.4280759514645354e-05 to 1.4280759514646353e-05 seconds.
Warning: Simulation tolerance relaxed to achieve convergence from 1.4280759514646353e-05 to 1.4280759514647353e-05 seconds.
Warning: Simulation tolerance relaxed to achieve convergence from 1.4280759514647353e-05 to 1.4280759514648352e-05 seconds.
Warning: Simulation tolerance relaxed to achieve convergence from 1.4280759514648352e-05 to 1.4280759514649352e-05 seconds.
Warning: Simulation tolerance relaxed to achieve convergence from 1.4280759514649352e-05 to 1.4280759514650351e-05 seconds.
Warning: Simulation tolerance relaxed to achieve convergence from 1.4280759514650351e-05 to 1.4280759514651351e-05 seconds.
Warning: Simulation tolerance relaxed to achieve convergence from 1.4280759514651351e-05 to 1.4280759514652350e-05 seconds.
Warning: Simulation tolerance relaxed to achieve convergence from 1.4280759514652350e-05 to 1.4280759514653350e-05 seconds.
Warning: Simulation tolerance relaxed to achieve convergence from 1.4280759514653350e-05 to 1.4280759514654349e-05 seconds.
Warning: Simulation tolerance relaxed to achieve convergence from 1.4280759514654349e-05 to 1.4280759514655349e-05 seconds.
Warning: Simulation tolerance relaxed to achieve convergence from 1.4280759514655349e-05 to 1.4280759514656348e-05 seconds.
Warning: Simulation tolerance relaxed to achieve convergence from 1.4280759514656348e-05 to 1.4280759514657348e-05 seconds.
Warning: Simulation tolerance relaxed to achieve convergence from 1.4280759514657348e-05 to 1.4280759514658347e-05 seconds.
Warning: Simulation tolerance relaxed to achieve convergence from 1.4280759514658347e-05 to 1.4280759514659347e-05 seconds.
Warning: Simulation tolerance relaxed to achieve convergence from 1.4280759514659347e-05 to 1.4280759514660346e-05 seconds.
Warning: Simulation tolerance relaxed to achieve convergence from 1.4280759514660346e-05 to 1.4280759514661346e-05 seconds.
Warning: Simulation tolerance relaxed to achieve convergence from 1.4280759514661346e-05 to 1.4280759514662345e-05 seconds.
Warning: Simulation tolerance relaxed to achieve convergence from 1.4280759514684344e-05 to 1.4280759514685344e-05 seconds.
Warning: Simulation tolerance relaxed to achieve convergence from 1.4280759514685344e-05 to 1.4280759514686343e-05 seconds.
Warning: Simulation tolerance relaxed to achieve convergence from 1.4280759514686343e-05 to 1.4280759514687343e-05 seconds.
Warning: Simulation tolerance relaxed to achieve convergence from 1.4280759514687343e-05 to 1.4280759514688342e-05 seconds.
Warning: Simulation tolerance relaxed to achieve convergence from 1.4280759514688342e-05 to 1.4280759514689342e-05 seconds.
Warning: Simulation tolerance relaxed to achieve convergence from 1.4280759514689342e-05 to 1.4280759514690341e-05 seconds.
Warning: Simulation tolerance relaxed to achieve convergence from 1.4280759514726340e-05 to 1.4280759514727340e-05 seconds.
Warning: Simulation tolerance relaxed to achieve convergence from 1.4280759514727340e-05 to 1.4280759514728339e-05 seconds.
Warning: Simulation tolerance relaxed to achieve convergence from 1.4280759514728339e-05 to 1.4280759514729339e-05 seconds.
Warning: Simulation tolerance relaxed to achieve convergence from 1.4280759514729339e-05 to 1.4280759514730338e-05 seconds.
Warning: Simulation tolerance relaxed to achieve convergence from 1.4280759514730338e-05 to 1.4280759514731338e-05 seconds.
Warning: Simulation tolerance relaxed to achieve convergence from 1.4280759514731338e-05 to 1.4280759514732337e-05 seconds.
Warning: Simulation tolerance relaxed to achieve convergence from 1.4280759514732337e-05 to 1.4280759514733337e-05 seconds.
Warning: Simulation tolerance relaxed to achieve convergence from 1.4280759514733337e-05 to 1.4280759514734336e-05 seconds.
Warning: Simulation tolerance relaxed to achieve convergence from 1.4280759514987335e-05 to 1.4280759514988334e-05 seconds.
Warning: Simulation tolerance relaxed to achieve convergence from 1.4280759514988334e-05 to 1.4280759514989334e-05 seconds.
Warning: Simulation tolerance relaxed to achieve convergence from 1.4280759514989334e-05 to 1.4280759514990333e-05 seconds.
Warning: Simulation tolerance relaxed to achieve convergence from 1.4280759514990333e-05 to 1.4280759514991333e-05 seconds.
Warning: Simulation tolerance relaxed to achieve convergence from 1.4280759577033326e-05 to 1.4280759577034326e-05 seconds.
Warning: Simulation tolerance relaxed to achieve convergence from 1.4280759577034326e-05 to 1.4280759577035325e-05 seconds.
Warning: Simulation tolerance relaxed to achieve convergence from 1.4280759577035325e-05 to 1.4280759577036325e-05 seconds.
Warning: Simulation tolerance relaxed to achieve convergence from 1.4280759577036325e-05 to 1.4280759577037324e-05 seconds.
Warning: Simulation tolerance relaxed to achieve convergence from 1.4280759577037324e-05 to 1.4280759577038324e-05 seconds.
Warning: Simulation tolerance relaxed to achieve convergence from 1.4280759577038324e-05 to 1.4280759577039323e-05 seconds.
Warning: Simulation tolerance relaxed to achieve convergence from 1.4280759577039323e-05 to 1.4280759577040323e-05 seconds.
Warning: Simulation tolerance relaxed to achieve convergence from 1.4280759577040323e-05 to 1.4280759577041322e-05 seconds.
Warning: Simulation tolerance relaxed to achieve convergence from 1.4280759577047323e-05 to 1.4280759577048322e-05 seconds.
Warning: Simulation tolerance relaxed to achieve convergence from 1.4280759577048322e-05 to 1.4280759577049322e-05 seconds.
Warning: Simulation tolerance relaxed to achieve convergence from 1.4280759577049322e-05 to 1.4280759577050321e-05 seconds.
Warning: Simulation tolerance relaxed to achieve convergence from 1.4280759579691319e-05 to 1.4280759579692319e-05 seconds.
Warning: Simulation tolerance relaxed to achieve convergence from 1.4280759579720318e-05 to 1.4280759579721318e-05 seconds.
Warning: Simulation tolerance relaxed to achieve convergence from 1.4280759579721318e-05 to 1.4280759579722317e-05 seconds.
Warning: Simulation tolerance relaxed to achieve convergence from 1.4280759579771316e-05 to 1.4280759579772316e-05 seconds.
Warning: Simulation tolerance relaxed to achieve convergence from 1.4280759579772316e-05 to 1.4280759579773315e-05 seconds.
Warning: Simulation tolerance relaxed to achieve convergence from 1.4280759579773315e-05 to 1.4280759579774315e-05 seconds.
Warning: Simulation tolerance relaxed to achieve convergence from 1.4280759579774315e-05 to 1.4280759579775314e-05 seconds.
Warning: Simulation tolerance relaxed to achieve convergence from 1.4280759579775314e-05 to 1.4280759579776314e-05 seconds.
Warning: Simulation tolerance relaxed to achieve convergence from 1.4280759579776314e-05 to 1.4280759579777313e-05 seconds.
Warning: Simulation tolerance relaxed to achieve convergence from 1.4280759580315310e-05 to 1.4280759580316309e-05 seconds.
Warning: Simulation tolerance relaxed to achieve convergence from 1.4280759580316309e-05 to 1.4280759580317309e-05 seconds.
Warning: Simulation tolerance relaxed to achieve convergence from 1.4280759580317309e-05 to 1.4280759580318308e-05 seconds.
Warning: Simulation tolerance relaxed to achieve convergence from 1.4280759580318308e-05 to 1.4280759580319308e-05 seconds.
Warning: Simulation tolerance relaxed to achieve convergence from 1.4280759580319308e-05 to 1.4280759580320307e-05 seconds.
Warning: Simulation tolerance relaxed to achieve convergence from 1.4280759580320307e-05 to 1.4280759580321307e-05 seconds.
Warning: Simulation tolerance relaxed to achieve convergence from 1.4280759580321307e-05 to 1.4280759580322306e-05 seconds.
Warning: Simulation tolerance relaxed to achieve convergence from 1.4280759580322306e-05 to 1.4280759580323306e-05 seconds.
Warning: Simulation tolerance relaxed to achieve convergence from 1.4280759580334305e-05 to 1.4280759580335305e-05 seconds.
Warning: Simulation tolerance relaxed to achieve convergence from 1.4280759580465304e-05 to 1.4280759580466304e-05 seconds.
Warning: Simulation tolerance relaxed to achieve convergence from 1.4280759580573302e-05 to 1.4280759580574302e-05 seconds.
Warning: Simulation tolerance relaxed to achieve convergence from 1.4280759580574302e-05 to 1.4280759580575301e-05 seconds.
Warning: Simulation tolerance relaxed to achieve convergence from 1.4280759580575301e-05 to 1.4280759580576301e-05 seconds.
Warning: Simulation tolerance relaxed to achieve convergence from 1.4280759580576301e-05 to 1.4280759580577300e-05 seconds.
Warning: Simulation tolerance relaxed to achieve convergence from 1.4280759580793299e-05 to 1.4280759580794298e-05 seconds.
Warning: Simulation tolerance relaxed to achieve convergence from 1.4280759580801298e-05 to 1.4280759580802298e-05 seconds.
Warning: Simulation tolerance relaxed to achieve convergence from 1.4280759580802298e-05 to 1.4280759580803297e-05 seconds.
Warning: Simulation tolerance relaxed to achieve convergence from 1.4280759580803297e-05 to 1.4280759580804297e-05 seconds.
Warning: Simulation tolerance relaxed to achieve convergence from 1.4280759580804297e-05 to 1.4280759580805296e-05 seconds.
Warning: Simulation tolerance relaxed to achieve convergence from 1.4280759580805296e-05 to 1.4280759580806296e-05 seconds.
Warning: Simulation tolerance relaxed to achieve convergence from 1.4280759580806296e-05 to 1.4280759580807295e-05 seconds.
Warning: Simulation tolerance relaxed to achieve convergence from 1.4280759580807295e-05 to 1.4280759580808295e-05 seconds.
Warning: Simulation tolerance relaxed to achieve convergence from 1.4280759580808295e-05 to 1.4280759580809294e-05 seconds.
Warning: Simulation tolerance relaxed to achieve convergence from 1.4280759580819294e-05 to 1.4280759580820294e-05 seconds.
Warning: Simulation tolerance relaxed to achieve convergence from 1.4280759580820294e-05 to 1.4280759580821293e-05 seconds.
Warning: Simulation tolerance relaxed to achieve convergence from 1.4280759580821293e-05 to 1.4280759580822293e-05 seconds.
Warning: Simulation tolerance relaxed to achieve convergence from 1.4280759580822293e-05 to 1.4280759580823292e-05 seconds.
Warning: Simulation tolerance relaxed to achieve convergence from 1.4280759580823292e-05 to 1.4280759580824292e-05 seconds.
Warning: Simulation tolerance relaxed to achieve convergence from 1.4280759580824292e-05 to 1.4280759580825291e-05 seconds.
Warning: Simulation tolerance relaxed to achieve convergence from 1.4280759580825291e-05 to 1.4280759580826291e-05 seconds.
Warning: Simulation tolerance relaxed to achieve convergence from 1.4280759580950290e-05 to 1.4280759580951289e-05 seconds.
Warning: Simulation tolerance relaxed to achieve convergence from 1.4280759580951289e-05 to 1.4280759580952289e-05 seconds.
Warning: Simulation tolerance relaxed to achieve convergence from 1.4280759580952289e-05 to 1.4280759580953288e-05 seconds.
Warning: Simulation tolerance relaxed to achieve convergence from 1.4280759580953288e-05 to 1.4280759580954288e-05 seconds.
Warning: Simulation tolerance relaxed to achieve convergence from 1.4280759580954288e-05 to 1.4280759580955287e-05 seconds.
Warning: Simulation tolerance relaxed to achieve convergence from 1.4280759580955287e-05 to 1.4280759580956287e-05 seconds.
Warning: Simulation tolerance relaxed to achieve convergence from 1.4280759580956287e-05 to 1.4280759580957286e-05 seconds.
Warning: Simulation tolerance relaxed to achieve convergence from 1.4280759580957286e-05 to 1.4280759580958286e-05 seconds.
Warning: Simulation tolerance relaxed to achieve convergence from 1.4280759580958286e-05 to 1.4280759580959285e-05 seconds.
Warning: Simulation tolerance relaxed to achieve convergence from 1.4280759580959285e-05 to 1.4280759580960285e-05 seconds.
Warning: Simulation tolerance relaxed to achieve convergence from 1.4280759580960285e-05 to 1.4280759580961284e-05 seconds.
Warning: Simulation tolerance relaxed to achieve convergence from 1.4280759580961284e-05 to 1.4280759580962284e-05 seconds.
Warning: Simulation tolerance relaxed to achieve convergence from 1.4280759580976283e-05 to 1.4280759580977283e-05 seconds.
Warning: Simulation tolerance relaxed to achieve convergence from 1.4280759580977283e-05 to 1.4280759580978282e-05 seconds.
Warning: Simulation tolerance relaxed to achieve convergence from 1.4280759583761280e-05 to 1.4280759583762280e-05 seconds.
Warning: Simulation tolerance relaxed to achieve convergence from 1.4280759583762280e-05 to 1.4280759583763279e-05 seconds.
Warning: Simulation tolerance relaxed to achieve convergence from 1.4280759583763279e-05 to 1.4280759583764279e-05 seconds.
Warning: Simulation tolerance relaxed to achieve convergence from 1.4280759583764279e-05 to 1.4280759583765278e-05 seconds.
Warning: Simulation tolerance relaxed to achieve convergence from 1.4280759583765278e-05 to 1.4280759583766278e-05 seconds.
Warning: Simulation tolerance relaxed to achieve convergence from 1.4280759583766278e-05 to 1.4280759583767277e-05 seconds.
Warning: Simulation tolerance relaxed to achieve convergence from 1.4280759583767277e-05 to 1.4280759583768277e-05 seconds.
Warning: Simulation tolerance relaxed to achieve convergence from 1.4280759859182275e-05 to 1.4280759859183274e-05 seconds.
Warning: Simulation tolerance relaxed to achieve convergence from 1.4280759859183274e-05 to 1.4280759859184274e-05 seconds.
Warning: Simulation tolerance relaxed to achieve convergence from 1.4280759859184274e-05 to 1.4280759859185273e-05 seconds.
Warning: Simulation tolerance relaxed to achieve convergence from 1.4280759859185273e-05 to 1.4280759859186273e-05 seconds.
Warning: Simulation tolerance relaxed to achieve convergence from 1.4280759859186273e-05 to 1.4280759859187272e-05 seconds.
Warning: Simulation tolerance relaxed to achieve convergence from 1.4280759859187272e-05 to 1.4280759859188272e-05 seconds.
Warning: Simulation tolerance relaxed to achieve convergence from 1.4280759859228272e-05 to 1.4280759859229271e-05 seconds.
Warning: Simulation tolerance relaxed to achieve convergence from 1.4280759859229271e-05 to 1.4280759859230271e-05 seconds.
Warning: Simulation tolerance relaxed to achieve convergence from 1.4280759859230271e-05 to 1.4280759859231270e-05 seconds.
Warning: Simulation tolerance relaxed to achieve convergence from 1.4280759859239270e-05 to 1.4280759859240269e-05 seconds.
Warning: Simulation tolerance relaxed to achieve convergence from 1.4280759859240269e-05 to 1.4280759859241269e-05 seconds.
Warning: Simulation tolerance relaxed to achieve convergence from 1.4280759859241269e-05 to 1.4280759859242268e-05 seconds.
Warning: Simulation tolerance relaxed to achieve convergence from 1.4280759859242268e-05 to 1.4280759859242268e-05 seconds.

Simulation stopped by user.
Total elapsed time: 107.377 seconds.

Files loaded:
C:\users\sebastian\Desktop\FIUBA-2do Cuatrimestre\Taller de Diseño Electrónico TA138\TP_Taller_de_Diseño_ TA138_G7\Simulación\BUCK\CircuitoCompleteo_buck_sincrono_pwm.net
C:\users\sebastian\AppData\Local\LTspice\lib\cmp\standard.dio
C:\users\sebastian\AppData\Local\LTspice\lib\cmp\standard.bjt
C:\users\sebastian\AppData\Local\LTspice\lib\cmp\standard.mos
C:\users\sebastian\Desktop\FIUBA-2do Cuatrimestre\Taller de Diseño Electrónico TA138\TP_Taller_de_Diseño_ TA138_G7\Simulación\BUCK\Modelos\lm393.lib
C:\users\sebastian\Desktop\FIUBA-2do Cuatrimestre\Taller de Diseño Electrónico TA138\TP_Taller_de_Diseño_ TA138_G7\Simulación\BUCK\Modelos\TL082.txt
C:\users\sebastian\Desktop\FIUBA-2do Cuatrimestre\Taller de Diseño Electrónico TA138\TP_Taller_de_Diseño_ TA138_G7\Simulación\BUCK\Modelos\lm358.txt
C:\users\sebastian\Desktop\FIUBA-2do Cuatrimestre\Taller de Diseño Electrónico TA138\TP_Taller_de_Diseño_ TA138_G7\Simulación\BUCK\Modelos\TL431.spi
C:\users\sebastian\Desktop\FIUBA-2do Cuatrimestre\Taller de Diseño Electrónico TA138\TP_Taller_de_Diseño_ TA138_G7\Simulación\BUCK\LM319.txt
C:\users\sebastian\Desktop\FIUBA-2do Cuatrimestre\Taller de Diseño Electrónico TA138\TP_Taller_de_Diseño_ TA138_G7\Simulación\BUCK\Modelos\irf3205.spi
C:\users\sebastian\Desktop\FIUBA-2do Cuatrimestre\Taller de Diseño Electrónico TA138\TP_Taller_de_Diseño_ TA138_G7\Simulación\BUCK\Modelos\ir2111.lib

