LTspice 24.1.5 for Windows
Circuit: C:\Users\ramaz\Desktop\Circuitos II\TP-TA138-G7\Simulación\BUCK\CircuitoCompleteo_buck_sincrono_pwm.net
Start Time: Fri May 29 10:36:57 2026
Options: gmin=1e-10  abstol=1e-10  reltol=0.003
solver = Normal
Maximum thread count: 12
tnom = 27
temp = 27
method = trap
gmin = 1e-10
abstol = 1e-10
reltol = 0.003
C:\Users\ramaz\Desktop\Circuitos II\TP-TA138-G7\Simulación\BUCK\CircuitoCompleteo_buck_sincrono_pwm.net(14): Limiting rise time to 2.5e-07.

V1 PWM 0 PULSE(0 10 0 0 0 5u 7.5u)
^^^^^^^^^^^^^^^^^^^^^^^^^^^^^^^^^^
C:\Users\ramaz\Desktop\Circuitos II\TP-TA138-G7\Simulación\BUCK\CircuitoCompleteo_buck_sincrono_pwm.net(14): Limiting fall time to 2.5e-07.

V1 PWM 0 PULSE(0 10 0 0 0 5u 7.5u)
^^^^^^^^^^^^^^^^^^^^^^^^^^^^^^^^^^
Instance "u2:x_gd_template:x_ho_stage:M_HO_PMOS": Length shorter than recommended for a level 1 MOSFET.
Instance "u2:x_gd_template:x_ho_stage:M_HO_NMOS": Length shorter than recommended for a level 1 MOSFET.
Instance "u2:x_gd_template:x_lo_stage:M_LO_PMOS": Length shorter than recommended for a level 1 MOSFET.
Instance "u2:x_gd_template:x_lo_stage:M_LO_NMOS": Length shorter than recommended for a level 1 MOSFET.
Direct Newton iteration failed to find .op point.  (Use ".option noopiter" to skip.)
Starting Gmin stepping
Gmin = 10
Gmin = 1.07374
vernier = 0.5
vernier = 0.25
vernier = 0.125
vernier = 0.0625
Gmin = 0.995033
vernier = 0.03125
vernier = 0.015625
vernier = 0.0078125
vernier = 0.00390625
vernier = 0.00195312
vernier = 0.000976562
Gmin = 1.00275
vernier = 0.00130208
Gmin = 0.999895
vernier = 0.000651042
vernier = 0.000488281
Gmin = 0
Gmin stepping failed

Starting source stepping with srcstepmethod=0
Source Step = 3.0303%
Source Step = 21.2121%
Source Step = 28.7879%
Source Step = 36.3636%
Source Step = 43.9394%
Source Step = 50.1894%
vernier = 0.015625
Source Step = 50.0237%
Starting source stepping with srcstepmethod=1
Source Step = 3.0303%
Source Step = 33.3333%
Source Step = 50.1894%
vernier = 0.015625
Source stepping failed

Pseudo Transient failed in finding the operating point at 5.625 µs.
Trouble finding operating point....skipping operating point for Transient analysis.
Changing Tseed to 1e-09
Changing Tseed to 1e-11
Changing Tseed to 1e-08
Changing Tseed to 1e-12
Warning: Simulation tolerance relaxed to achieve convergence from 1.3878750731835983e-03 to 1.3878750731836083e-03 seconds.
Total elapsed time: 23.414 seconds.

Files loaded:
C:\Users\ramaz\Desktop\Circuitos II\TP-TA138-G7\Simulación\BUCK\CircuitoCompleteo_buck_sincrono_pwm.net
C:\Users\ramaz\AppData\Local\LTspice\lib\cmp\standard.dio
C:\Users\ramaz\AppData\Local\LTspice\lib\cmp\standard.mos
C:\Users\ramaz\Desktop\Circuitos II\TP-TA138-G7\Simulación\BUCK\Modelos\lm393.lib
C:\Users\ramaz\Desktop\Circuitos II\TP-TA138-G7\Simulación\BUCK\Modelos\TL082.txt
C:\Users\ramaz\Desktop\Circuitos II\TP-TA138-G7\Simulación\BUCK\Modelos\lm358.txt
C:\Users\ramaz\Desktop\Circuitos II\TP-TA138-G7\Simulación\BUCK\Modelos\TL431.spi
C:\Users\ramaz\Desktop\Circuitos II\TP-TA138-G7\Simulación\BUCK\LM319.txt
C:\Users\ramaz\Desktop\Circuitos II\TP-TA138-G7\Simulación\BUCK\Modelos\irf3205.spi
C:\Users\ramaz\Desktop\Circuitos II\TP-TA138-G7\Simulación\BUCK\Modelos\ir2111.lib

