LTspice 24.1.5 for Windows
Circuit: C:\users\sebastian\Desktop\FIUBA-2do Cuatrimestre\Taller de Diseño Electrónico TA138\TP_Taller_de_Diseño_ TA138_G7\Simulación\BUCK\CircuitoCompleteo_buck_sincrono_pwm.net
Start Time: Fri May 29 19:37:28 2026
Options: gmin=1e-10  abstol=1e-10  reltol=0.003
solver = Normal
Maximum thread count: 4
tnom = 27
temp = 27
method = trap
gmin = 1e-10
abstol = 1e-10
reltol = 0.003
Instance "u2:x_gd_template:x_ho_stage:M_HO_PMOS": Length shorter than recommended for a level 1 MOSFET.
Instance "u2:x_gd_template:x_ho_stage:M_HO_NMOS": Length shorter than recommended for a level 1 MOSFET.
Instance "u2:x_gd_template:x_lo_stage:M_LO_PMOS": Length shorter than recommended for a level 1 MOSFET.
Instance "u2:x_gd_template:x_lo_stage:M_LO_NMOS": Length shorter than recommended for a level 1 MOSFET.
Direct Newton iteration for .op point succeeded.
Warning: Simulation tolerance relaxed to achieve convergence from 1.4421362698301639e-05 to 1.4421362698302639e-05 seconds.
Warning: Simulation tolerance relaxed to achieve convergence from 1.4421362707457637e-05 to 1.4421362707458636e-05 seconds.
Warning: Simulation tolerance relaxed to achieve convergence from 1.4421362802233632e-05 to 1.4421362802234632e-05 seconds.
Warning: Simulation tolerance relaxed to achieve convergence from 1.4421362802561627e-05 to 1.4421362802562626e-05 seconds.
Warning: Simulation tolerance relaxed to achieve convergence from 1.4421362851225572e-05 to 1.4421362851226572e-05 seconds.
Warning: Simulation tolerance relaxed to achieve convergence from 1.4421362871603569e-05 to 1.4421362871604568e-05 seconds.
Warning: Simulation tolerance relaxed to achieve convergence from 1.4421374620799552e-05 to 1.4421374620800552e-05 seconds.
Warning: Simulation tolerance relaxed to achieve convergence from 1.4421374620800552e-05 to 1.4421374620801551e-05 seconds.
Warning: Simulation tolerance relaxed to achieve convergence from 1.4421374628712529e-05 to 1.4421374628713528e-05 seconds.
Warning: Simulation tolerance relaxed to achieve convergence from 1.4421374696803510e-05 to 1.4421374696804510e-05 seconds.
Warning: Simulation tolerance relaxed to achieve convergence from 1.4421376729891101e-05 to 1.4421376729892100e-05 seconds.
Warning: Simulation tolerance relaxed to achieve convergence from 1.4421376830493079e-05 to 1.4421376830494078e-05 seconds.
Warning: Simulation tolerance relaxed to achieve convergence from 1.4421404490724270e-05 to 1.4421404490725270e-05 seconds.
Warning: Simulation tolerance relaxed to achieve convergence from 1.4421404518798258e-05 to 1.4421404518799257e-05 seconds.
Warning: Simulation tolerance relaxed to achieve convergence from 1.4421404532170246e-05 to 1.4421404532171246e-05 seconds.
Warning: Simulation tolerance relaxed to achieve convergence from 1.4421404534141238e-05 to 1.4421404534142237e-05 seconds.
Warning: Simulation tolerance relaxed to achieve convergence from 1.4421404535261232e-05 to 1.4421404535262232e-05 seconds.
Warning: Simulation tolerance relaxed to achieve convergence from 1.4421416789465204e-05 to 1.4421416789466204e-05 seconds.
Warning: Simulation tolerance relaxed to achieve convergence from 1.4421425756445158e-05 to 1.4421425756446157e-05 seconds.
Warning: Simulation tolerance relaxed to achieve convergence from 1.4421446781454540e-05 to 1.4421446781455539e-05 seconds.
Warning: Simulation tolerance relaxed to achieve convergence from 1.4421446861992519e-05 to 1.4421446861993519e-05 seconds.
Warning: Simulation tolerance relaxed to achieve convergence from 1.4421446869110512e-05 to 1.4421446869111511e-05 seconds.
Warning: Simulation tolerance relaxed to achieve convergence from 1.4421451983951495e-05 to 1.4421451983952494e-05 seconds.
Warning: Simulation tolerance relaxed to achieve convergence from 1.4421451984101494e-05 to 1.4421451984102494e-05 seconds.
Warning: Simulation tolerance relaxed to achieve convergence from 1.4421452174280498e-05 to 1.4421452174281497e-05 seconds.
Warning: Simulation tolerance relaxed to achieve convergence from 1.4421452174281497e-05 to 1.4421452174282497e-05 seconds.
Warning: Simulation tolerance relaxed to achieve convergence from 1.4421452493211471e-05 to 1.4421452493212470e-05 seconds.
Warning: Simulation tolerance relaxed to achieve convergence from 1.4421485453885454e-05 to 1.4421485453886453e-05 seconds.
Warning: Simulation tolerance relaxed to achieve convergence from 1.4421487558193420e-05 to 1.4421487558194419e-05 seconds.
Warning: Simulation tolerance relaxed to achieve convergence from 1.4421587101040873e-05 to 1.4421587101041873e-05 seconds.
Warning: Simulation tolerance relaxed to achieve convergence from 1.4421587106909865e-05 to 1.4421587106910864e-05 seconds.
Warning: Simulation tolerance relaxed to achieve convergence from 1.4421587187913824e-05 to 1.4421587187914824e-05 seconds.
Warning: Simulation tolerance relaxed to achieve convergence from 1.4421587213302800e-05 to 1.4421587213303800e-05 seconds.
Warning: Simulation tolerance relaxed to achieve convergence from 1.4421587213719794e-05 to 1.4421587213720794e-05 seconds.
Warning: Simulation tolerance relaxed to achieve convergence from 1.4421587213954792e-05 to 1.4421587213955791e-05 seconds.
Warning: Simulation tolerance relaxed to achieve convergence from 1.4421587213958792e-05 to 1.4421587213959791e-05 seconds.
Warning: Simulation tolerance relaxed to achieve convergence from 1.4421587221560777e-05 to 1.4421587221561776e-05 seconds.
Warning: Simulation tolerance relaxed to achieve convergence from 1.4421587224899772e-05 to 1.4421587224900772e-05 seconds.
Warning: Simulation tolerance relaxed to achieve convergence from 1.4421587227139763e-05 to 1.4421587227140762e-05 seconds.
Warning: Simulation tolerance relaxed to achieve convergence from 1.4421587290854743e-05 to 1.4421587290855743e-05 seconds.
Warning: Simulation tolerance relaxed to achieve convergence from 1.4421587294233732e-05 to 1.4421587294234731e-05 seconds.
Warning: Simulation tolerance relaxed to achieve convergence from 1.4421587309163711e-05 to 1.4421587309164710e-05 seconds.
Warning: Simulation tolerance relaxed to achieve convergence from 1.4421587309313709e-05 to 1.4421587309314708e-05 seconds.
Warning: Simulation tolerance relaxed to achieve convergence from 1.4421601633807689e-05 to 1.4421601633808688e-05 seconds.
Warning: Simulation tolerance relaxed to achieve convergence from 1.4421601639234685e-05 to 1.4421601639235684e-05 seconds.
Warning: Simulation tolerance relaxed to achieve convergence from 1.4421601639572680e-05 to 1.4421601639573679e-05 seconds.
Warning: Simulation tolerance relaxed to achieve convergence from 1.4421601641789663e-05 to 1.4421601641790663e-05 seconds.
Warning: Simulation tolerance relaxed to achieve convergence from 1.4421605142395603e-05 to 1.4421605142396602e-05 seconds.
Warning: Simulation tolerance relaxed to achieve convergence from 1.4421606415900588e-05 to 1.4421606415901587e-05 seconds.
Warning: Simulation tolerance relaxed to achieve convergence from 1.4421606416467586e-05 to 1.4421606416468586e-05 seconds.
Warning: Simulation tolerance relaxed to achieve convergence from 1.4421606565534582e-05 to 1.4421606565535582e-05 seconds.
Warning: Simulation tolerance relaxed to achieve convergence from 1.4421606566801572e-05 to 1.4421606566802572e-05 seconds.
Warning: Simulation tolerance relaxed to achieve convergence from 1.4421606568590563e-05 to 1.4421606568591563e-05 seconds.
Warning: Simulation tolerance relaxed to achieve convergence from 1.4421606591558538e-05 to 1.4421606591559537e-05 seconds.
Warning: Simulation tolerance relaxed to achieve convergence from 1.4421606597545516e-05 to 1.4421606597546515e-05 seconds.
Warning: Simulation tolerance relaxed to achieve convergence from 1.4421654756233303e-05 to 1.4421654756234302e-05 seconds.
Warning: Simulation tolerance relaxed to achieve convergence from 1.4421726796636946e-05 to 1.4421726796637945e-05 seconds.
Warning: Simulation tolerance relaxed to achieve convergence from 1.4421726796637945e-05 to 1.4421726796638945e-05 seconds.
Warning: Simulation tolerance relaxed to achieve convergence from 1.4421726796909944e-05 to 1.4421726796910944e-05 seconds.
Warning: Simulation tolerance relaxed to achieve convergence from 1.4421726796912945e-05 to 1.4421726796913944e-05 seconds.
Warning: Simulation tolerance relaxed to achieve convergence from 1.4421726925390938e-05 to 1.4421726925391937e-05 seconds.
Warning: Simulation tolerance relaxed to achieve convergence from 1.4421726925706935e-05 to 1.4421726925707935e-05 seconds.
Warning: Simulation tolerance relaxed to achieve convergence from 1.4421726925707935e-05 to 1.4421726925708934e-05 seconds.
Warning: Simulation tolerance relaxed to achieve convergence from 1.4421726925708934e-05 to 1.4421726925709934e-05 seconds.
Warning: Simulation tolerance relaxed to achieve convergence from 1.4421727722891910e-05 to 1.4421727722892910e-05 seconds.
Warning: Simulation tolerance relaxed to achieve convergence from 1.4421727723984908e-05 to 1.4421727723985908e-05 seconds.
Warning: Simulation tolerance relaxed to achieve convergence from 1.4421727733658897e-05 to 1.4421727733659896e-05 seconds.
Warning: Simulation tolerance relaxed to achieve convergence from 1.4421727734519889e-05 to 1.4421727734520888e-05 seconds.
Warning: Simulation tolerance relaxed to achieve convergence from 1.4421727756459865e-05 to 1.4421727756460865e-05 seconds.
Warning: Simulation tolerance relaxed to achieve convergence from 1.4421727798228859e-05 to 1.4421727798229858e-05 seconds.
Warning: Simulation tolerance relaxed to achieve convergence from 1.4421733590787852e-05 to 1.4421733590788852e-05 seconds.
Warning: Simulation tolerance relaxed to achieve convergence from 1.4421734095194844e-05 to 1.4421734095195843e-05 seconds.
Warning: Simulation tolerance relaxed to achieve convergence from 1.4421793659268823e-05 to 1.4421793659269823e-05 seconds.
Warning: Simulation tolerance relaxed to achieve convergence from 1.4421794548313900e-05 to 1.4421794548314900e-05 seconds.
Warning: Simulation tolerance relaxed to achieve convergence from 1.4421794555604894e-05 to 1.4421794555605893e-05 seconds.
Warning: Simulation tolerance relaxed to achieve convergence from 1.4421795931308854e-05 to 1.4421795931309853e-05 seconds.
Warning: Simulation tolerance relaxed to achieve convergence from 1.4421800327698839e-05 to 1.4421800327699839e-05 seconds.
Warning: Simulation tolerance relaxed to achieve convergence from 1.4421800331729813e-05 to 1.4421800331730813e-05 seconds.
Warning: Simulation tolerance relaxed to achieve convergence from 1.4421800357891801e-05 to 1.4421800357892801e-05 seconds.
Warning: Simulation tolerance relaxed to achieve convergence from 1.4421862057414776e-05 to 1.4421862057415775e-05 seconds.
Warning: Simulation tolerance relaxed to achieve convergence from 1.4421862132810759e-05 to 1.4421862132811758e-05 seconds.
Warning: Simulation tolerance relaxed to achieve convergence from 1.4421862174968734e-05 to 1.4421862174969733e-05 seconds.
Warning: Simulation tolerance relaxed to achieve convergence from 1.4421862174985734e-05 to 1.4421862174986733e-05 seconds.
Warning: Simulation tolerance relaxed to achieve convergence from 1.4421862174992734e-05 to 1.4421862174993733e-05 seconds.
Warning: Simulation tolerance relaxed to achieve convergence from 1.4421862175583732e-05 to 1.4421862175584732e-05 seconds.
Warning: Simulation tolerance relaxed to achieve convergence from 1.4421862467946715e-05 to 1.4421862467947715e-05 seconds.
Warning: Simulation tolerance relaxed to achieve convergence from 1.4421862467947715e-05 to 1.4421862467948714e-05 seconds.
Warning: Simulation tolerance relaxed to achieve convergence from 1.4421862533319698e-05 to 1.4421862533320698e-05 seconds.
Warning: Simulation tolerance relaxed to achieve convergence from 1.4421863111366247e-05 to 1.4421863111367247e-05 seconds.
Warning: Simulation tolerance relaxed to achieve convergence from 1.4421863161259241e-05 to 1.4421863161260240e-05 seconds.
Warning: Simulation tolerance relaxed to achieve convergence from 1.4421863162998237e-05 to 1.4421863162999236e-05 seconds.
Warning: Simulation tolerance relaxed to achieve convergence from 1.4421863245591218e-05 to 1.4421863245592218e-05 seconds.
Warning: Simulation tolerance relaxed to achieve convergence from 1.4421946645211475e-05 to 1.4421946645212474e-05 seconds.
Warning: Simulation tolerance relaxed to achieve convergence from 1.4421946686628433e-05 to 1.4421946686629433e-05 seconds.
Warning: Simulation tolerance relaxed to achieve convergence from 1.4421946690029425e-05 to 1.4421946690030424e-05 seconds.
Warning: Simulation tolerance relaxed to achieve convergence from 1.4421973511414248e-05 to 1.4421973511415247e-05 seconds.
Warning: Simulation tolerance relaxed to achieve convergence from 1.4422023798963212e-05 to 1.4422023798964212e-05 seconds.
Warning: Simulation tolerance relaxed to achieve convergence from 1.4422023801932203e-05 to 1.4422023801933203e-05 seconds.
Warning: Simulation tolerance relaxed to achieve convergence from 1.4422027867451194e-05 to 1.4422027867452193e-05 seconds.
Warning: Simulation tolerance relaxed to achieve convergence from 1.4422114577944160e-05 to 1.4422114577945159e-05 seconds.
Warning: Simulation tolerance relaxed to achieve convergence from 1.4422114578169156e-05 to 1.4422114578170155e-05 seconds.
Warning: Simulation tolerance relaxed to achieve convergence from 1.4422114579081153e-05 to 1.4422114579082152e-05 seconds.
Warning: Simulation tolerance relaxed to achieve convergence from 1.4422114579083152e-05 to 1.4422114579084151e-05 seconds.
Warning: Simulation tolerance relaxed to achieve convergence from 1.4422114606024146e-05 to 1.4422114606025145e-05 seconds.
Warning: Simulation tolerance relaxed to achieve convergence from 1.4422114606032145e-05 to 1.4422114606033145e-05 seconds.
Warning: Simulation tolerance relaxed to achieve convergence from 1.4422114821827117e-05 to 1.4422114821828117e-05 seconds.
Warning: Simulation tolerance relaxed to achieve convergence from 1.4422114823935113e-05 to 1.4422114823936112e-05 seconds.
Warning: Simulation tolerance relaxed to achieve convergence from 1.4422114825268109e-05 to 1.4422114825269109e-05 seconds.
Warning: Simulation tolerance relaxed to achieve convergence from 1.4422114883400102e-05 to 1.4422114883401102e-05 seconds.
Warning: Simulation tolerance relaxed to achieve convergence from 1.4422114890153093e-05 to 1.4422114890154092e-05 seconds.
Warning: Simulation tolerance relaxed to achieve convergence from 1.4422114891698084e-05 to 1.4422114891699084e-05 seconds.
Warning: Simulation tolerance relaxed to achieve convergence from 1.4422118923397075e-05 to 1.4422118923398075e-05 seconds.
Warning: Simulation tolerance relaxed to achieve convergence from 1.4422119093793074e-05 to 1.4422119093794073e-05 seconds.
Warning: Simulation tolerance relaxed to achieve convergence from 1.4422144602350027e-05 to 1.4422144602351027e-05 seconds.
Warning: Simulation tolerance relaxed to achieve convergence from 1.4422144602365026e-05 to 1.4422144602366026e-05 seconds.
Warning: Simulation tolerance relaxed to achieve convergence from 1.4422144617147015e-05 to 1.4422144617148015e-05 seconds.
Warning: Simulation tolerance relaxed to achieve convergence from 1.4422144731249002e-05 to 1.4422144731250002e-05 seconds.
Warning: Simulation tolerance relaxed to achieve convergence from 1.4422144731252001e-05 to 1.4422144731253000e-05 seconds.
Warning: Simulation tolerance relaxed to achieve convergence from 1.4422144731254000e-05 to 1.4422144731254999e-05 seconds.
Warning: Simulation tolerance relaxed to achieve convergence from 1.4422144872737001e-05 to 1.4422144872738001e-05 seconds.
Warning: Simulation tolerance relaxed to achieve convergence from 1.4422144880086998e-05 to 1.4422144880087997e-05 seconds.
Warning: Simulation tolerance relaxed to achieve convergence from 1.4422144882254982e-05 to 1.4422144882255981e-05 seconds.
Warning: Simulation tolerance relaxed to achieve convergence from 1.4422144882645976e-05 to 1.4422144882646975e-05 seconds.
Warning: Simulation tolerance relaxed to achieve convergence from 1.4422144884847961e-05 to 1.4422144884848961e-05 seconds.
Warning: Simulation tolerance relaxed to achieve convergence from 1.4422152479003956e-05 to 1.4422152479004956e-05 seconds.
Warning: Simulation tolerance relaxed to achieve convergence from 1.4422308367160954e-05 to 1.4422308367161953e-05 seconds.
Warning: Simulation tolerance relaxed to achieve convergence from 1.4422308379224932e-05 to 1.4422308379225932e-05 seconds.
Warning: Simulation tolerance relaxed to achieve convergence from 1.4422308379230931e-05 to 1.4422308379231930e-05 seconds.
Warning: Simulation tolerance relaxed to achieve convergence from 1.4422308379269930e-05 to 1.4422308379270929e-05 seconds.
Warning: Simulation tolerance relaxed to achieve convergence from 1.4422308382431914e-05 to 1.4422308382432914e-05 seconds.
Warning: Simulation tolerance relaxed to achieve convergence from 1.4422308382433913e-05 to 1.4422308382434913e-05 seconds.
Warning: Simulation tolerance relaxed to achieve convergence from 1.4422308382435912e-05 to 1.4422308382436912e-05 seconds.
Warning: Simulation tolerance relaxed to achieve convergence from 1.4422308382442910e-05 to 1.4422308382443910e-05 seconds.
Warning: Simulation tolerance relaxed to achieve convergence from 1.4422308624889903e-05 to 1.4422308624890902e-05 seconds.
Warning: Simulation tolerance relaxed to achieve convergence from 1.4422308695372892e-05 to 1.4422308695373891e-05 seconds.
Warning: Simulation tolerance relaxed to achieve convergence from 1.4422308695668886e-05 to 1.4422308695669885e-05 seconds.
Warning: Simulation tolerance relaxed to achieve convergence from 1.4422309032120872e-05 to 1.4422309032121872e-05 seconds.
Warning: Simulation tolerance relaxed to achieve convergence from 1.4422309302635867e-05 to 1.4422309302636866e-05 seconds.
Warning: Simulation tolerance relaxed to achieve convergence from 1.4422309304374864e-05 to 1.4422309304375864e-05 seconds.
Warning: Simulation tolerance relaxed to achieve convergence from 1.4422309309337849e-05 to 1.4422309309338849e-05 seconds.
Warning: Simulation tolerance relaxed to achieve convergence from 1.4422334949248843e-05 to 1.4422334949249843e-05 seconds.
Warning: Simulation tolerance relaxed to achieve convergence from 1.4422334951755839e-05 to 1.4422334951756839e-05 seconds.
Warning: Simulation tolerance relaxed to achieve convergence from 1.4422335084510828e-05 to 1.4422335084511828e-05 seconds.
Warning: Simulation tolerance relaxed to achieve convergence from 1.4422616055223797e-05 to 1.4422616055224797e-05 seconds.
Warning: Simulation tolerance relaxed to achieve convergence from 1.4422633392827772e-05 to 1.4422633392828772e-05 seconds.
Warning: Simulation tolerance relaxed to achieve convergence from 1.4422633879481753e-05 to 1.4422633879482752e-05 seconds.
Warning: Simulation tolerance relaxed to achieve convergence from 1.4422651566259715e-05 to 1.4422651566260715e-05 seconds.
Warning: Simulation tolerance relaxed to achieve convergence from 1.4422651629889710e-05 to 1.4422651629890709e-05 seconds.
Warning: Simulation tolerance relaxed to achieve convergence from 1.4422652168636688e-05 to 1.4422652168637687e-05 seconds.
Warning: Simulation tolerance relaxed to achieve convergence from 1.4422652218293669e-05 to 1.4422652218294668e-05 seconds.
Warning: Simulation tolerance relaxed to achieve convergence from 1.4422652218307669e-05 to 1.4422652218308668e-05 seconds.
Warning: Simulation tolerance relaxed to achieve convergence from 1.4422653588875634e-05 to 1.4422653588876634e-05 seconds.
Warning: Simulation tolerance relaxed to achieve convergence from 1.4422655519488598e-05 to 1.4422655519489598e-05 seconds.
Warning: Simulation tolerance relaxed to achieve convergence from 1.4422655519911593e-05 to 1.4422655519912593e-05 seconds.
Warning: Simulation tolerance relaxed to achieve convergence from 1.4422703164760568e-05 to 1.4422703164761567e-05 seconds.
Warning: Simulation tolerance relaxed to achieve convergence from 1.4422703165484561e-05 to 1.4422703165485560e-05 seconds.
Warning: Simulation tolerance relaxed to achieve convergence from 1.4422703179243551e-05 to 1.4422703179244550e-05 seconds.
Warning: Simulation tolerance relaxed to achieve convergence from 1.4422703614896551e-05 to 1.4422703614897551e-05 seconds.
Warning: Simulation tolerance relaxed to achieve convergence from 1.4422725656756535e-05 to 1.4422725656757534e-05 seconds.
Warning: Simulation tolerance relaxed to achieve convergence from 1.4422725761710499e-05 to 1.4422725761711498e-05 seconds.
Warning: Simulation tolerance relaxed to achieve convergence from 1.4422727284562462e-05 to 1.4422727284563462e-05 seconds.
Warning: Simulation tolerance relaxed to achieve convergence from 1.4422727284566460e-05 to 1.4422727284567460e-05 seconds.
Warning: Simulation tolerance relaxed to achieve convergence from 1.4422728273343439e-05 to 1.4422728273344439e-05 seconds.
Warning: Simulation tolerance relaxed to achieve convergence from 1.4422728273360439e-05 to 1.4422728273361439e-05 seconds.
Warning: Simulation tolerance relaxed to achieve convergence from 1.4422728531044430e-05 to 1.4422728531045429e-05 seconds.
Warning: Simulation tolerance relaxed to achieve convergence from 1.4422728531910423e-05 to 1.4422728531911422e-05 seconds.
Warning: Simulation tolerance relaxed to achieve convergence from 1.4422728551368418e-05 to 1.4422728551369417e-05 seconds.
Warning: Simulation tolerance relaxed to achieve convergence from 1.4422728552809416e-05 to 1.4422728552810415e-05 seconds.
Warning: Simulation tolerance relaxed to achieve convergence from 1.4422728553012412e-05 to 1.4422728553013412e-05 seconds.
Warning: Simulation tolerance relaxed to achieve convergence from 1.4422728553019412e-05 to 1.4422728553020412e-05 seconds.
Warning: Simulation tolerance relaxed to achieve convergence from 1.4422729878266392e-05 to 1.4422729878267392e-05 seconds.
Warning: Simulation tolerance relaxed to achieve convergence from 1.4422729924632367e-05 to 1.4422729924633367e-05 seconds.
Warning: Simulation tolerance relaxed to achieve convergence from 1.4422729925174365e-05 to 1.4422729925175365e-05 seconds.
Warning: Simulation tolerance relaxed to achieve convergence from 1.4422730001209358e-05 to 1.4422730001210358e-05 seconds.
Warning: Simulation tolerance relaxed to achieve convergence from 1.4422762065187345e-05 to 1.4422762065188345e-05 seconds.
Warning: Simulation tolerance relaxed to achieve convergence from 1.4422762122301323e-05 to 1.4422762122302323e-05 seconds.
Warning: Simulation tolerance relaxed to achieve convergence from 1.4422762143777303e-05 to 1.4422762143778303e-05 seconds.
Warning: Simulation tolerance relaxed to achieve convergence from 1.4422762143778303e-05 to 1.4422762143779302e-05 seconds.
Warning: Simulation tolerance relaxed to achieve convergence from 1.4422763705302269e-05 to 1.4422763705303268e-05 seconds.
Warning: Simulation tolerance relaxed to achieve convergence from 1.4422763705303268e-05 to 1.4422763705304268e-05 seconds.
Warning: Simulation tolerance relaxed to achieve convergence from 1.4422765179911229e-05 to 1.4422765179912228e-05 seconds.
Warning: Simulation tolerance relaxed to achieve convergence from 1.4422778359125198e-05 to 1.4422778359126198e-05 seconds.
Warning: Simulation tolerance relaxed to achieve convergence from 1.4422778862926192e-05 to 1.4422778862927192e-05 seconds.
Warning: Simulation tolerance relaxed to achieve convergence from 1.4422778865197189e-05 to 1.4422778865198189e-05 seconds.
Warning: Simulation tolerance relaxed to achieve convergence from 1.4422781287889145e-05 to 1.4422781287890144e-05 seconds.
Warning: Simulation tolerance relaxed to achieve convergence from 1.4422781287890144e-05 to 1.4422781287891144e-05 seconds.
Warning: Simulation tolerance relaxed to achieve convergence from 1.4422781288843136e-05 to 1.4422781288844135e-05 seconds.
Warning: Simulation tolerance relaxed to achieve convergence from 1.4422781291734122e-05 to 1.4422781291735121e-05 seconds.
Warning: Simulation tolerance relaxed to achieve convergence from 1.4422781300911102e-05 to 1.4422781300912102e-05 seconds.
Warning: Simulation tolerance relaxed to achieve convergence from 1.4422781591086089e-05 to 1.4422781591087089e-05 seconds.
Warning: Simulation tolerance relaxed to achieve convergence from 1.4422782302529014e-05 to 1.4422782302530014e-05 seconds.
Warning: Simulation tolerance relaxed to achieve convergence from 1.4422782303820004e-05 to 1.4422782303821004e-05 seconds.
Warning: Simulation tolerance relaxed to achieve convergence from 1.4422789271030999e-05 to 1.4422789271031998e-05 seconds.
Warning: Simulation tolerance relaxed to achieve convergence from 1.4422791062831953e-05 to 1.4422791062832952e-05 seconds.
Warning: Simulation tolerance relaxed to achieve convergence from 1.4422791067282946e-05 to 1.4422791067283946e-05 seconds.
Warning: Simulation tolerance relaxed to achieve convergence from 1.4422799438029849e-05 to 1.4422799438030848e-05 seconds.
Warning: Simulation tolerance relaxed to achieve convergence from 1.4422831078395818e-05 to 1.4422831078396818e-05 seconds.
Warning: Simulation tolerance relaxed to achieve convergence from 1.4423057143383430e-05 to 1.4423057143384429e-05 seconds.
Warning: Simulation tolerance relaxed to achieve convergence from 1.4423061357737415e-05 to 1.4423061357738415e-05 seconds.
Warning: Simulation tolerance relaxed to achieve convergence from 1.4423061357738415e-05 to 1.4423061357739414e-05 seconds.
Warning: Simulation tolerance relaxed to achieve convergence from 1.4423061364906413e-05 to 1.4423061364907412e-05 seconds.
Warning: Simulation tolerance relaxed to achieve convergence from 1.4423062293640382e-05 to 1.4423062293641381e-05 seconds.
Warning: Simulation tolerance relaxed to achieve convergence from 1.4423064898194375e-05 to 1.4423064898195374e-05 seconds.
Warning: Simulation tolerance relaxed to achieve convergence from 1.4423065257313370e-05 to 1.4423065257314369e-05 seconds.
Warning: Simulation tolerance relaxed to achieve convergence from 1.4423077000506329e-05 to 1.4423077000507328e-05 seconds.
Warning: Simulation tolerance relaxed to achieve convergence from 1.4423077003824319e-05 to 1.4423077003825319e-05 seconds.
Warning: Simulation tolerance relaxed to achieve convergence from 1.4423089217866273e-05 to 1.4423089217867273e-05 seconds.
Warning: Simulation tolerance relaxed to achieve convergence from 1.4423089218045272e-05 to 1.4423089218046271e-05 seconds.
Warning: Simulation tolerance relaxed to achieve convergence from 1.4423089229982265e-05 to 1.4423089229983264e-05 seconds.
Warning: Simulation tolerance relaxed to achieve convergence from 1.4423089231575256e-05 to 1.4423089231576256e-05 seconds.
Warning: Simulation tolerance relaxed to achieve convergence from 1.4423089231776252e-05 to 1.4423089231777251e-05 seconds.
Warning: Simulation tolerance relaxed to achieve convergence from 1.4423089231777251e-05 to 1.4423089231778251e-05 seconds.
Warning: Simulation tolerance relaxed to achieve convergence from 1.4423089262189249e-05 to 1.4423089262190249e-05 seconds.
Warning: Simulation tolerance relaxed to achieve convergence from 1.4423089285938232e-05 to 1.4423089285939232e-05 seconds.
Warning: Simulation tolerance relaxed to achieve convergence from 1.4423089697870205e-05 to 1.4423089697871205e-05 seconds.
Warning: Simulation tolerance relaxed to achieve convergence from 1.4423090614973171e-05 to 1.4423090614974170e-05 seconds.
Warning: Simulation tolerance relaxed to achieve convergence from 1.4423090786693161e-05 to 1.4423090786694161e-05 seconds.
Warning: Simulation tolerance relaxed to achieve convergence from 1.4423090787863149e-05 to 1.4423090787864149e-05 seconds.
Warning: Simulation tolerance relaxed to achieve convergence from 1.4423090787906148e-05 to 1.4423090787907147e-05 seconds.
Warning: Simulation tolerance relaxed to achieve convergence from 1.4423090840558141e-05 to 1.4423090840559141e-05 seconds.
Warning: Simulation tolerance relaxed to achieve convergence from 1.4423091285847083e-05 to 1.4423091285848083e-05 seconds.
Warning: Simulation tolerance relaxed to achieve convergence from 1.4423106754677043e-05 to 1.4423106754678042e-05 seconds.
Warning: Simulation tolerance relaxed to achieve convergence from 1.4423106827627038e-05 to 1.4423106827628038e-05 seconds.
Warning: Simulation tolerance relaxed to achieve convergence from 1.4423188079714001e-05 to 1.4423188079715001e-05 seconds.
Warning: Simulation tolerance relaxed to achieve convergence from 1.4423188093855984e-05 to 1.4423188093856983e-05 seconds.
Warning: Simulation tolerance relaxed to achieve convergence from 1.4423188093856983e-05 to 1.4423188093857983e-05 seconds.
Warning: Simulation tolerance relaxed to achieve convergence from 1.4423188093857983e-05 to 1.4423188093858982e-05 seconds.
Warning: Simulation tolerance relaxed to achieve convergence from 1.4423204447885974e-05 to 1.4423204447886974e-05 seconds.
Warning: Simulation tolerance relaxed to achieve convergence from 1.4423223333568939e-05 to 1.4423223333569939e-05 seconds.
Warning: Simulation tolerance relaxed to achieve convergence from 1.4423223333571940e-05 to 1.4423223333572939e-05 seconds.
Warning: Simulation tolerance relaxed to achieve convergence from 1.4423223471441905e-05 to 1.4423223471442905e-05 seconds.
Warning: Simulation tolerance relaxed to achieve convergence from 1.4423228148463887e-05 to 1.4423228148464887e-05 seconds.
Warning: Simulation tolerance relaxed to achieve convergence from 1.4423229737996863e-05 to 1.4423229737997862e-05 seconds.
Warning: Simulation tolerance relaxed to achieve convergence from 1.4423229761407847e-05 to 1.4423229761408847e-05 seconds.
Warning: Simulation tolerance relaxed to achieve convergence from 1.4423234191122823e-05 to 1.4423234191123822e-05 seconds.
Warning: Simulation tolerance relaxed to achieve convergence from 1.4423234209006810e-05 to 1.4423234209007810e-05 seconds.
Warning: Simulation tolerance relaxed to achieve convergence from 1.4423274789899770e-05 to 1.4423274789900770e-05 seconds.
Warning: Simulation tolerance relaxed to achieve convergence from 1.4423274790054769e-05 to 1.4423274790055769e-05 seconds.
Warning: Simulation tolerance relaxed to achieve convergence from 1.4423627164913521e-05 to 1.4423627164914520e-05 seconds.
Warning: Simulation tolerance relaxed to achieve convergence from 1.4423627246057515e-05 to 1.4423627246058515e-05 seconds.
Warning: Simulation tolerance relaxed to achieve convergence from 1.4423627246461513e-05 to 1.4423627246462512e-05 seconds.
Warning: Simulation tolerance relaxed to achieve convergence from 1.4423627253013496e-05 to 1.4423627253014495e-05 seconds.
Warning: Simulation tolerance relaxed to achieve convergence from 1.4423633510267434e-05 to 1.4423633510268433e-05 seconds.
Warning: Simulation tolerance relaxed to achieve convergence from 1.4423641653226416e-05 to 1.4423641653227415e-05 seconds.
Warning: Simulation tolerance relaxed to achieve convergence from 1.4423642930184396e-05 to 1.4423642930185396e-05 seconds.
Warning: Simulation tolerance relaxed to achieve convergence from 1.4423642946410375e-05 to 1.4423642946411374e-05 seconds.
Warning: Simulation tolerance relaxed to achieve convergence from 1.4423643000064359e-05 to 1.4423643000065358e-05 seconds.
Warning: Simulation tolerance relaxed to achieve convergence from 1.4423643539404355e-05 to 1.4423643539405354e-05 seconds.
Warning: Simulation tolerance relaxed to achieve convergence from 1.4423643552882352e-05 to 1.4423643552883351e-05 seconds.
Warning: Simulation tolerance relaxed to achieve convergence from 1.4423643557039345e-05 to 1.4423643557040345e-05 seconds.
Warning: Simulation tolerance relaxed to achieve convergence from 1.4423643611247328e-05 to 1.4423643611248327e-05 seconds.
Warning: Simulation tolerance relaxed to achieve convergence from 1.4423643611255327e-05 to 1.4423643611256327e-05 seconds.
Warning: Simulation tolerance relaxed to achieve convergence from 1.4423777529412320e-05 to 1.4423777529413320e-05 seconds.
Warning: Simulation tolerance relaxed to achieve convergence from 1.4424194162658314e-05 to 1.4424194162659313e-05 seconds.
Warning: Simulation tolerance relaxed to achieve convergence from 1.4424194354019308e-05 to 1.4424194354020307e-05 seconds.
Warning: Simulation tolerance relaxed to achieve convergence from 1.4424194357246303e-05 to 1.4424194357247303e-05 seconds.
Warning: Simulation tolerance relaxed to achieve convergence from 1.4424194363991294e-05 to 1.4424194363992294e-05 seconds.
Warning: Simulation tolerance relaxed to achieve convergence from 1.4424194363992294e-05 to 1.4424194363993293e-05 seconds.
Warning: Simulation tolerance relaxed to achieve convergence from 1.4424194364292293e-05 to 1.4424194364293292e-05 seconds.
Warning: Simulation tolerance relaxed to achieve convergence from 1.4424194396374284e-05 to 1.4424194396375283e-05 seconds.
Warning: Simulation tolerance relaxed to achieve convergence from 1.4424194396375283e-05 to 1.4424194396376283e-05 seconds.
Warning: Simulation tolerance relaxed to achieve convergence from 1.4424194404105270e-05 to 1.4424194404106270e-05 seconds.
Warning: Simulation tolerance relaxed to achieve convergence from 1.4424194413130266e-05 to 1.4424194413131265e-05 seconds.
Warning: Simulation tolerance relaxed to achieve convergence from 1.4424194413382262e-05 to 1.4424194413383261e-05 seconds.
Warning: Simulation tolerance relaxed to achieve convergence from 1.4424199243727234e-05 to 1.4424199243728234e-05 seconds.
Warning: Simulation tolerance relaxed to achieve convergence from 1.4424199249179228e-05 to 1.4424199249180227e-05 seconds.
Warning: Simulation tolerance relaxed to achieve convergence from 1.4424199456157224e-05 to 1.4424199456158224e-05 seconds.
Warning: Simulation tolerance relaxed to achieve convergence from 1.4424199457153221e-05 to 1.4424199457154221e-05 seconds.
Warning: Simulation tolerance relaxed to achieve convergence from 1.4424212131910200e-05 to 1.4424212131911200e-05 seconds.
Warning: Simulation tolerance relaxed to achieve convergence from 1.4424212141972196e-05 to 1.4424212141973196e-05 seconds.
Warning: Simulation tolerance relaxed to achieve convergence from 1.4424758709535181e-05 to 1.4424758709536181e-05 seconds.
Warning: Simulation tolerance relaxed to achieve convergence from 1.4424758842177153e-05 to 1.4424758842178152e-05 seconds.
Warning: Simulation tolerance relaxed to achieve convergence from 1.4424758853693147e-05 to 1.4424758853694146e-05 seconds.
Warning: Simulation tolerance relaxed to achieve convergence from 1.4424758861002121e-05 to 1.4424758861003121e-05 seconds.
Warning: Simulation tolerance relaxed to achieve convergence from 1.4424761959728082e-05 to 1.4424761959729081e-05 seconds.
Warning: Simulation tolerance relaxed to achieve convergence from 1.4425733615739446e-05 to 1.4425733615740445e-05 seconds.
Warning: Simulation tolerance relaxed to achieve convergence from 1.4425733664903406e-05 to 1.4425733664904406e-05 seconds.
Warning: Simulation tolerance relaxed to achieve convergence from 1.4425733665277404e-05 to 1.4425733665278403e-05 seconds.
Warning: Simulation tolerance relaxed to achieve convergence from 1.4425827963452344e-05 to 1.4425827963453344e-05 seconds.
Warning: Simulation tolerance relaxed to achieve convergence from 1.4425828086548337e-05 to 1.4425828086549337e-05 seconds.
Warning: Simulation tolerance relaxed to achieve convergence from 1.4425828087219333e-05 to 1.4425828087220333e-05 seconds.
Warning: Simulation tolerance relaxed to achieve convergence from 1.4425828087225332e-05 to 1.4425828087226331e-05 seconds.
Warning: Simulation tolerance relaxed to achieve convergence from 1.4425828087231331e-05 to 1.4425828087232330e-05 seconds.
Warning: Simulation tolerance relaxed to achieve convergence from 1.4425828087238330e-05 to 1.4425828087239330e-05 seconds.
Warning: Simulation tolerance relaxed to achieve convergence from 1.4425828694258270e-05 to 1.4425828694259269e-05 seconds.
Warning: Simulation tolerance relaxed to achieve convergence from 1.4425828895375262e-05 to 1.4425828895376262e-05 seconds.
Warning: Simulation tolerance relaxed to achieve convergence from 1.4425828928725241e-05 to 1.4425828928726241e-05 seconds.
Warning: Simulation tolerance relaxed to achieve convergence from 1.4425828935063233e-05 to 1.4425828935064233e-05 seconds.
Warning: Simulation tolerance relaxed to achieve convergence from 1.4425828935505230e-05 to 1.4425828935506230e-05 seconds.
Warning: Simulation tolerance relaxed to achieve convergence from 1.4425828952611225e-05 to 1.4425828952612224e-05 seconds.
Warning: Simulation tolerance relaxed to achieve convergence from 1.4425834375747203e-05 to 1.4425834375748203e-05 seconds.
Warning: Simulation tolerance relaxed to achieve convergence from 1.4425834375751203e-05 to 1.4425834375752202e-05 seconds.
Warning: Simulation tolerance relaxed to achieve convergence from 1.4425834375758203e-05 to 1.4425834375759202e-05 seconds.
Warning: Simulation tolerance relaxed to achieve convergence from 1.4425835620938182e-05 to 1.4425835620939182e-05 seconds.
Warning: Simulation tolerance relaxed to achieve convergence from 1.4425873470487146e-05 to 1.4425873470488145e-05 seconds.
Warning: Simulation tolerance relaxed to achieve convergence from 1.4425873472687142e-05 to 1.4425873472688142e-05 seconds.
Warning: Simulation tolerance relaxed to achieve convergence from 1.4426060773516105e-05 to 1.4426060773517104e-05 seconds.
Warning: Simulation tolerance relaxed to achieve convergence from 1.4426061513024089e-05 to 1.4426061513025089e-05 seconds.
Warning: Simulation tolerance relaxed to achieve convergence from 1.4426061641067021e-05 to 1.4426061641068020e-05 seconds.
Warning: Simulation tolerance relaxed to achieve convergence from 1.4426061650873006e-05 to 1.4426061650874005e-05 seconds.
Warning: Simulation tolerance relaxed to achieve convergence from 1.4426061679479965e-05 to 1.4426061679480964e-05 seconds.
Warning: Simulation tolerance relaxed to achieve convergence from 1.4426062552522947e-05 to 1.4426062552523947e-05 seconds.
Warning: Simulation tolerance relaxed to achieve convergence from 1.4426062552529947e-05 to 1.4426062552530947e-05 seconds.
Warning: Simulation tolerance relaxed to achieve convergence from 1.4426087333382893e-05 to 1.4426087333383893e-05 seconds.
Warning: Simulation tolerance relaxed to achieve convergence from 1.4426087333383893e-05 to 1.4426087333384892e-05 seconds.
Warning: Simulation tolerance relaxed to achieve convergence from 1.4426089494475877e-05 to 1.4426089494476876e-05 seconds.
Warning: Simulation tolerance relaxed to achieve convergence from 1.4426089494510876e-05 to 1.4426089494511876e-05 seconds.
Warning: Simulation tolerance relaxed to achieve convergence from 1.7130074366607080e-05 to 1.7130074366608080e-05 seconds.
Warning: Simulation tolerance relaxed to achieve convergence from 1.7130451756328381e-05 to 1.7130451756329380e-05 seconds.
Warning: Simulation tolerance relaxed to achieve convergence from 1.7130499994524404e-05 to 1.7130499994525404e-05 seconds.
Warning: Simulation tolerance relaxed to achieve convergence from 1.7130499994692401e-05 to 1.7130499994693401e-05 seconds.
Warning: Simulation tolerance relaxed to achieve convergence from 1.7130633896624428e-05 to 1.7130633896625427e-05 seconds.
Warning: Simulation tolerance relaxed to achieve convergence from 1.7130633896625427e-05 to 1.7130633896626427e-05 seconds.
Warning: Simulation tolerance relaxed to achieve convergence from 1.7130634859239425e-05 to 1.7130634859240425e-05 seconds.
Warning: Simulation tolerance relaxed to achieve convergence from 1.7130634859550418e-05 to 1.7130634859551418e-05 seconds.
Warning: Simulation tolerance relaxed to achieve convergence from 1.7130634859690416e-05 to 1.7130634859691415e-05 seconds.
Warning: Simulation tolerance relaxed to achieve convergence from 1.7130802897034431e-05 to 1.7130802897035431e-05 seconds.
Warning: Simulation tolerance relaxed to achieve convergence from 1.7130827219900438e-05 to 1.7130827219901438e-05 seconds.
Warning: Simulation tolerance relaxed to achieve convergence from 1.7130827219901438e-05 to 1.7130827219902437e-05 seconds.
Warning: Simulation tolerance relaxed to achieve convergence from 1.7130827220339432e-05 to 1.7130827220340431e-05 seconds.
Warning: Simulation tolerance relaxed to achieve convergence from 1.7130929120032475e-05 to 1.7130929120033474e-05 seconds.
Warning: Simulation tolerance relaxed to achieve convergence from 1.7131284604859579e-05 to 1.7131284604860579e-05 seconds.
Warning: Simulation tolerance relaxed to achieve convergence from 1.7131317650589564e-05 to 1.7131317650590563e-05 seconds.
Warning: Simulation tolerance relaxed to achieve convergence from 1.7131634747548108e-05 to 1.7131634747549107e-05 seconds.
Warning: Simulation tolerance relaxed to achieve convergence from 1.7131634747549107e-05 to 1.7131634747550107e-05 seconds.
Warning: Simulation tolerance relaxed to achieve convergence from 1.7131993812192177e-05 to 1.7131993812193176e-05 seconds.
Warning: Simulation tolerance relaxed to achieve convergence from 1.7132189173190199e-05 to 1.7132189173191199e-05 seconds.
Warning: Simulation tolerance relaxed to achieve convergence from 1.7134110301911758e-05 to 1.7134110301912758e-05 seconds.
Warning: Simulation tolerance relaxed to achieve convergence from 1.7134110301912758e-05 to 1.7134110301913757e-05 seconds.
Warning: Simulation tolerance relaxed to achieve convergence from 1.7134612145496862e-05 to 1.7134612145497861e-05 seconds.
Warning: Simulation tolerance relaxed to achieve convergence from 1.7134612907950862e-05 to 1.7134612907951861e-05 seconds.
Warning: Simulation tolerance relaxed to achieve convergence from 1.7134612926491844e-05 to 1.7134612926492843e-05 seconds.
Warning: Simulation tolerance relaxed to achieve convergence from 1.7134612926536842e-05 to 1.7134612926537841e-05 seconds.
Warning: Simulation tolerance relaxed to achieve convergence from 1.7134612926537841e-05 to 1.7134612926538841e-05 seconds.
Warning: Simulation tolerance relaxed to achieve convergence from 1.7134612926539840e-05 to 1.7134612926540840e-05 seconds.
Warning: Simulation tolerance relaxed to achieve convergence from 1.7134612926541839e-05 to 1.7134612926542839e-05 seconds.
Warning: Simulation tolerance relaxed to achieve convergence from 1.7134612926545837e-05 to 1.7134612926546837e-05 seconds.
Warning: Simulation tolerance relaxed to achieve convergence from 1.7134612926546837e-05 to 1.7134612926547836e-05 seconds.
Warning: Simulation tolerance relaxed to achieve convergence from 1.7136017936645868e-05 to 1.7136017936646868e-05 seconds.
Warning: Simulation tolerance relaxed to achieve convergence from 1.7136020638331871e-05 to 1.7136020638332870e-05 seconds.
Warning: Simulation tolerance relaxed to achieve convergence from 1.7136097581296891e-05 to 1.7136097581297890e-05 seconds.
Warning: Simulation tolerance relaxed to achieve convergence from 1.7136097582194878e-05 to 1.7136097582195877e-05 seconds.
Warning: Simulation tolerance relaxed to achieve convergence from 1.7136603543287958e-05 to 1.7136603543288958e-05 seconds.
Warning: Simulation tolerance relaxed to achieve convergence from 1.7136603543304957e-05 to 1.7136603543305956e-05 seconds.
Warning: Simulation tolerance relaxed to achieve convergence from 1.7136819205488123e-05 to 1.7136819205489123e-05 seconds.
Warning: Simulation tolerance relaxed to achieve convergence from 1.7136850179585173e-05 to 1.7136850179586172e-05 seconds.
Warning: Simulation tolerance relaxed to achieve convergence from 1.7136850179592173e-05 to 1.7136850179593172e-05 seconds.
Warning: Simulation tolerance relaxed to achieve convergence from 1.7136920245063203e-05 to 1.7136920245064202e-05 seconds.
Warning: Simulation tolerance relaxed to achieve convergence from 1.7137113218892363e-05 to 1.7137113218893362e-05 seconds.
Warning: Simulation tolerance relaxed to achieve convergence from 1.7137638174618438e-05 to 1.7137638174619438e-05 seconds.
Warning: Simulation tolerance relaxed to achieve convergence from 1.7256177989408028e-05 to 1.7256177989409028e-05 seconds.
Warning: Simulation tolerance relaxed to achieve convergence from 1.7256177989427025e-05 to 1.7256177989428025e-05 seconds.
Warning: Simulation tolerance relaxed to achieve convergence from 1.7257116327130906e-05 to 1.7257116327131905e-05 seconds.
Warning: Simulation tolerance relaxed to achieve convergence from 1.7257116327206901e-05 to 1.7257116327207901e-05 seconds.
Warning: Simulation tolerance relaxed to achieve convergence from 1.7257117150811896e-05 to 1.7257117150812896e-05 seconds.
Warning: Simulation tolerance relaxed to achieve convergence from 1.7257118203871923e-05 to 1.7257118203872923e-05 seconds.
Warning: Simulation tolerance relaxed to achieve convergence from 1.7257118375858917e-05 to 1.7257118375859917e-05 seconds.
Warning: Simulation tolerance relaxed to achieve convergence from 1.7257118375982909e-05 to 1.7257118375983909e-05 seconds.
Warning: Simulation tolerance relaxed to achieve convergence from 1.7257118376105905e-05 to 1.7257118376106905e-05 seconds.
Warning: Simulation tolerance relaxed to achieve convergence from 1.7257124395784964e-05 to 1.7257124395785964e-05 seconds.
Warning: Simulation tolerance relaxed to achieve convergence from 1.7257124395785964e-05 to 1.7257124395786963e-05 seconds.
Warning: Simulation tolerance relaxed to achieve convergence from 1.7257124395787963e-05 to 1.7257124395788962e-05 seconds.
Warning: Simulation tolerance relaxed to achieve convergence from 1.7257124395790961e-05 to 1.7257124395791961e-05 seconds.
Warning: Simulation tolerance relaxed to achieve convergence from 1.7257125220334970e-05 to 1.7257125220335970e-05 seconds.
Warning: Simulation tolerance relaxed to achieve convergence from 1.7257125355247959e-05 to 1.7257125355248958e-05 seconds.
Warning: Simulation tolerance relaxed to achieve convergence from 1.7257125355258957e-05 to 1.7257125355259956e-05 seconds.
Warning: Simulation tolerance relaxed to achieve convergence from 1.7257129226320953e-05 to 1.7257129226321952e-05 seconds.
Warning: Simulation tolerance relaxed to achieve convergence from 1.7257131728668983e-05 to 1.7257131728669982e-05 seconds.
Warning: Simulation tolerance relaxed to achieve convergence from 1.7257161034489035e-05 to 1.7257161034490034e-05 seconds.
Warning: Simulation tolerance relaxed to achieve convergence from 1.7257161034496035e-05 to 1.7257161034497034e-05 seconds.
Warning: Simulation tolerance relaxed to achieve convergence from 1.7257161706206020e-05 to 1.7257161706207019e-05 seconds.
Warning: Simulation tolerance relaxed to achieve convergence from 1.7257161706216018e-05 to 1.7257161706217018e-05 seconds.
Warning: Simulation tolerance relaxed to achieve convergence from 1.7257161706319014e-05 to 1.7257161706320014e-05 seconds.
Warning: Simulation tolerance relaxed to achieve convergence from 1.7257161706330012e-05 to 1.7257161706331012e-05 seconds.
Warning: Simulation tolerance relaxed to achieve convergence from 1.7257170898770990e-05 to 1.7257170898771989e-05 seconds.
Warning: Simulation tolerance relaxed to achieve convergence from 1.7257173313433962e-05 to 1.7257173313434961e-05 seconds.
Warning: Simulation tolerance relaxed to achieve convergence from 1.7257176461076997e-05 to 1.7257176461077996e-05 seconds.
Warning: Simulation tolerance relaxed to achieve convergence from 1.7257176461117993e-05 to 1.7257176461118993e-05 seconds.
Warning: Simulation tolerance relaxed to achieve convergence from 1.7257178409627008e-05 to 1.7257178409628008e-05 seconds.
Warning: Simulation tolerance relaxed to achieve convergence from 1.7257190110828028e-05 to 1.7257190110829027e-05 seconds.
Warning: Simulation tolerance relaxed to achieve convergence from 1.7257190316600012e-05 to 1.7257190316601011e-05 seconds.
Warning: Simulation tolerance relaxed to achieve convergence from 1.7257193153026018e-05 to 1.7257193153027018e-05 seconds.
Warning: Simulation tolerance relaxed to achieve convergence from 1.7257193153033015e-05 to 1.7257193153034014e-05 seconds.
Warning: Simulation tolerance relaxed to achieve convergence from 1.7257195055034046e-05 to 1.7257195055035045e-05 seconds.
Warning: Simulation tolerance relaxed to achieve convergence from 1.7257195055043045e-05 to 1.7257195055044044e-05 seconds.
Warning: Simulation tolerance relaxed to achieve convergence from 1.7257195939341027e-05 to 1.7257195939342026e-05 seconds.
Warning: Simulation tolerance relaxed to achieve convergence from 1.7257204173643091e-05 to 1.7257204173644091e-05 seconds.
Warning: Simulation tolerance relaxed to achieve convergence from 1.7257204173688089e-05 to 1.7257204173689089e-05 seconds.
Warning: Simulation tolerance relaxed to achieve convergence from 1.7257208599597049e-05 to 1.7257208599598049e-05 seconds.
Warning: Simulation tolerance relaxed to achieve convergence from 1.7257210575813047e-05 to 1.7257210575814047e-05 seconds.
Warning: Simulation tolerance relaxed to achieve convergence from 1.7257210575814047e-05 to 1.7257210575815046e-05 seconds.
Warning: Simulation tolerance relaxed to achieve convergence from 1.7257215491314027e-05 to 1.7257215491315026e-05 seconds.
Warning: Simulation tolerance relaxed to achieve convergence from 1.7257215491323022e-05 to 1.7257215491324022e-05 seconds.
Warning: Simulation tolerance relaxed to achieve convergence from 1.7257215722313000e-05 to 1.7257215722313999e-05 seconds.
Warning: Simulation tolerance relaxed to achieve convergence from 1.7257224963689022e-05 to 1.7257224963690022e-05 seconds.
Warning: Simulation tolerance relaxed to achieve convergence from 1.7257224963696022e-05 to 1.7257224963697021e-05 seconds.
Warning: Simulation tolerance relaxed to achieve convergence from 1.7257225966106010e-05 to 1.7257225966107009e-05 seconds.
Warning: Simulation tolerance relaxed to achieve convergence from 1.7257227278867019e-05 to 1.7257227278868019e-05 seconds.
Warning: Simulation tolerance relaxed to achieve convergence from 1.7257232090212003e-05 to 1.7257232090213002e-05 seconds.
Warning: Simulation tolerance relaxed to achieve convergence from 1.7257232511638003e-05 to 1.7257232511639002e-05 seconds.
Warning: Simulation tolerance relaxed to achieve convergence from 1.7257233028007011e-05 to 1.7257233028008010e-05 seconds.
Warning: Simulation tolerance relaxed to achieve convergence from 1.7257234371298994e-05 to 1.7257234371299994e-05 seconds.
Warning: Simulation tolerance relaxed to achieve convergence from 1.7257235502808004e-05 to 1.7257235502809004e-05 seconds.
Warning: Simulation tolerance relaxed to achieve convergence from 1.7257239216058021e-05 to 1.7257239216059021e-05 seconds.
Warning: Simulation tolerance relaxed to achieve convergence from 1.7257243489380040e-05 to 1.7257243489381040e-05 seconds.
Warning: Simulation tolerance relaxed to achieve convergence from 1.7257243677942022e-05 to 1.7257243677943022e-05 seconds.
Warning: Simulation tolerance relaxed to achieve convergence from 1.7257244447629003e-05 to 1.7257244447630002e-05 seconds.
Warning: Simulation tolerance relaxed to achieve convergence from 1.7257245448492021e-05 to 1.7257245448493020e-05 seconds.
Warning: Simulation tolerance relaxed to achieve convergence from 1.7257245514793009e-05 to 1.7257245514794009e-05 seconds.
Warning: Simulation tolerance relaxed to achieve convergence from 1.7257246646651000e-05 to 1.7257246646652000e-05 seconds.
Warning: Simulation tolerance relaxed to achieve convergence from 1.7257246646710997e-05 to 1.7257246646711997e-05 seconds.
Warning: Simulation tolerance relaxed to achieve convergence from 1.7257253477180991e-05 to 1.7257253477181991e-05 seconds.
Warning: Simulation tolerance relaxed to achieve convergence from 1.7257255052150994e-05 to 1.7257255052151993e-05 seconds.
Warning: Simulation tolerance relaxed to achieve convergence from 1.7257255355820996e-05 to 1.7257255355821995e-05 seconds.
Warning: Simulation tolerance relaxed to achieve convergence from 1.7257255355876988e-05 to 1.7257255355877988e-05 seconds.
Warning: Simulation tolerance relaxed to achieve convergence from 1.7257255998355965e-05 to 1.7257255998356964e-05 seconds.
Warning: Simulation tolerance relaxed to achieve convergence from 1.7257255999620954e-05 to 1.7257255999621954e-05 seconds.
Warning: Simulation tolerance relaxed to achieve convergence from 1.7257257206052986e-05 to 1.7257257206053986e-05 seconds.
Warning: Simulation tolerance relaxed to achieve convergence from 1.7257257206213983e-05 to 1.7257257206214983e-05 seconds.
Warning: Simulation tolerance relaxed to achieve convergence from 1.7257273427527989e-05 to 1.7257273427528988e-05 seconds.
Warning: Simulation tolerance relaxed to achieve convergence from 1.7257273427542988e-05 to 1.7257273427543988e-05 seconds.
Warning: Simulation tolerance relaxed to achieve convergence from 1.7257273750339987e-05 to 1.7257273750340986e-05 seconds.
Warning: Simulation tolerance relaxed to achieve convergence from 1.7257273751195975e-05 to 1.7257273751196974e-05 seconds.
Warning: Simulation tolerance relaxed to achieve convergence from 1.7257273751200972e-05 to 1.7257273751201972e-05 seconds.
Warning: Simulation tolerance relaxed to achieve convergence from 1.7257275490101971e-05 to 1.7257275490102970e-05 seconds.
Warning: Simulation tolerance relaxed to achieve convergence from 1.7257277506875997e-05 to 1.7257277506876996e-05 seconds.
Warning: Simulation tolerance relaxed to achieve convergence from 1.7257280960125991e-05 to 1.7257280960126991e-05 seconds.
Warning: Simulation tolerance relaxed to achieve convergence from 1.7257284486859984e-05 to 1.7257284486860983e-05 seconds.
Warning: Simulation tolerance relaxed to achieve convergence from 1.7257534044772039e-05 to 1.7257534044773038e-05 seconds.
Warning: Simulation tolerance relaxed to achieve convergence from 1.7257534235956032e-05 to 1.7257534235957031e-05 seconds.
Warning: Simulation tolerance relaxed to achieve convergence from 1.7257534239066022e-05 to 1.7257534239067021e-05 seconds.
Warning: Simulation tolerance relaxed to achieve convergence from 1.7257534318569019e-05 to 1.7257534318570018e-05 seconds.
Warning: Simulation tolerance relaxed to achieve convergence from 1.7257535131949994e-05 to 1.7257535131950994e-05 seconds.
Warning: Simulation tolerance relaxed to achieve convergence from 1.7257536054165989e-05 to 1.7257536054166988e-05 seconds.
Warning: Simulation tolerance relaxed to achieve convergence from 1.7257536232044971e-05 to 1.7257536232045971e-05 seconds.
Warning: Simulation tolerance relaxed to achieve convergence from 1.7257536343984969e-05 to 1.7257536343985969e-05 seconds.
Warning: Simulation tolerance relaxed to achieve convergence from 1.7257546210764031e-05 to 1.7257546210765031e-05 seconds.
Warning: Simulation tolerance relaxed to achieve convergence from 1.7257546210765031e-05 to 1.7257546210766030e-05 seconds.
Warning: Simulation tolerance relaxed to achieve convergence from 1.7257549198242047e-05 to 1.7257549198243046e-05 seconds.
Warning: Simulation tolerance relaxed to achieve convergence from 1.7257549277851035e-05 to 1.7257549277852034e-05 seconds.
Warning: Simulation tolerance relaxed to achieve convergence from 1.7257549288101018e-05 to 1.7257549288102017e-05 seconds.
Warning: Simulation tolerance relaxed to achieve convergence from 1.7257554623004005e-05 to 1.7257554623005004e-05 seconds.
Warning: Simulation tolerance relaxed to achieve convergence from 1.7257554623014000e-05 to 1.7257554623014999e-05 seconds.
Warning: Simulation tolerance relaxed to achieve convergence from 1.7257554699370994e-05 to 1.7257554699371994e-05 seconds.
Warning: Simulation tolerance relaxed to achieve convergence from 1.7257554699599981e-05 to 1.7257554699600981e-05 seconds.
Warning: Simulation tolerance relaxed to achieve convergence from 1.7257556324454973e-05 to 1.7257556324455972e-05 seconds.
Warning: Simulation tolerance relaxed to achieve convergence from 1.7257556451026967e-05 to 1.7257556451027967e-05 seconds.
Warning: Simulation tolerance relaxed to achieve convergence from 1.7257556451260962e-05 to 1.7257556451261961e-05 seconds.
Warning: Simulation tolerance relaxed to achieve convergence from 1.7257575695684017e-05 to 1.7257575695685016e-05 seconds.
Warning: Simulation tolerance relaxed to achieve convergence from 1.7257575972400014e-05 to 1.7257575972401014e-05 seconds.
Warning: Simulation tolerance relaxed to achieve convergence from 1.7257575974673007e-05 to 1.7257575974674006e-05 seconds.
Warning: Simulation tolerance relaxed to achieve convergence from 1.7257575974688006e-05 to 1.7257575974689005e-05 seconds.
Warning: Simulation tolerance relaxed to achieve convergence from 1.7257727976918802e-05 to 1.7257727976919801e-05 seconds.
Warning: Simulation tolerance relaxed to achieve convergence from 1.7257727982932793e-05 to 1.7257727982933793e-05 seconds.
Warning: Simulation tolerance relaxed to achieve convergence from 1.7257727982935792e-05 to 1.7257727982936791e-05 seconds.
Warning: Simulation tolerance relaxed to achieve convergence from 1.7257727983002789e-05 to 1.7257727983003788e-05 seconds.
Warning: Simulation tolerance relaxed to achieve convergence from 1.7257727983003788e-05 to 1.7257727983004788e-05 seconds.
Warning: Simulation tolerance relaxed to achieve convergence from 1.7257727983174784e-05 to 1.7257727983175783e-05 seconds.
Warning: Simulation tolerance relaxed to achieve convergence from 1.7257727994988773e-05 to 1.7257727994989772e-05 seconds.
Warning: Simulation tolerance relaxed to achieve convergence from 1.7257727994998771e-05 to 1.7257727994999770e-05 seconds.
Warning: Simulation tolerance relaxed to achieve convergence from 1.7257739292934441e-05 to 1.7257739292935441e-05 seconds.
Warning: Simulation tolerance relaxed to achieve convergence from 1.7257739292935441e-05 to 1.7257739292936440e-05 seconds.
Warning: Simulation tolerance relaxed to achieve convergence from 1.7257742339319434e-05 to 1.7257742339320434e-05 seconds.
Warning: Simulation tolerance relaxed to achieve convergence from 1.7257742379478439e-05 to 1.7257742379479438e-05 seconds.
Warning: Simulation tolerance relaxed to achieve convergence from 1.7257743157684443e-05 to 1.7257743157685442e-05 seconds.
Warning: Simulation tolerance relaxed to achieve convergence from 1.7257748851059454e-05 to 1.7257748851060454e-05 seconds.
Warning: Simulation tolerance relaxed to achieve convergence from 1.7257751136146416e-05 to 1.7257751136147416e-05 seconds.
Warning: Simulation tolerance relaxed to achieve convergence from 1.7257751136214409e-05 to 1.7257751136215409e-05 seconds.
Warning: Simulation tolerance relaxed to achieve convergence from 1.7257766051233363e-05 to 1.7257766051234363e-05 seconds.
Warning: Simulation tolerance relaxed to achieve convergence from 1.7257766051236362e-05 to 1.7257766051237361e-05 seconds.
Warning: Simulation tolerance relaxed to achieve convergence from 1.7257766051239360e-05 to 1.7257766051240360e-05 seconds.
Warning: Simulation tolerance relaxed to achieve convergence from 1.7257782344959365e-05 to 1.7257782344960365e-05 seconds.
Warning: Simulation tolerance relaxed to achieve convergence from 1.7257782553261365e-05 to 1.7257782553262365e-05 seconds.
Warning: Simulation tolerance relaxed to achieve convergence from 1.7257786524366379e-05 to 1.7257786524367379e-05 seconds.
Warning: Simulation tolerance relaxed to achieve convergence from 1.7257787941756354e-05 to 1.7257787941757354e-05 seconds.
Warning: Simulation tolerance relaxed to achieve convergence from 1.7257789584291363e-05 to 1.7257789584292362e-05 seconds.
Warning: Simulation tolerance relaxed to achieve convergence from 1.7257789614688353e-05 to 1.7257789614689353e-05 seconds.
Warning: Simulation tolerance relaxed to achieve convergence from 1.7257794003921356e-05 to 1.7257794003922355e-05 seconds.
Warning: Simulation tolerance relaxed to achieve convergence from 1.7257795164717356e-05 to 1.7257795164718356e-05 seconds.
Warning: Simulation tolerance relaxed to achieve convergence from 1.7257797106310337e-05 to 1.7257797106311337e-05 seconds.
Warning: Simulation tolerance relaxed to achieve convergence from 1.7257798871477329e-05 to 1.7257798871478329e-05 seconds.
Warning: Simulation tolerance relaxed to achieve convergence from 1.7257802329678337e-05 to 1.7257802329679336e-05 seconds.
Warning: Simulation tolerance relaxed to achieve convergence from 1.7257802329685337e-05 to 1.7257802329686336e-05 seconds.
Warning: Simulation tolerance relaxed to achieve convergence from 1.7257809552743368e-05 to 1.7257809552744368e-05 seconds.
Warning: Simulation tolerance relaxed to achieve convergence from 1.7257809572570356e-05 to 1.7257809572571356e-05 seconds.
Warning: Simulation tolerance relaxed to achieve convergence from 1.7257810159475359e-05 to 1.7257810159476358e-05 seconds.
Warning: Simulation tolerance relaxed to achieve convergence from 1.7257816330651359e-05 to 1.7257816330652358e-05 seconds.
Warning: Simulation tolerance relaxed to achieve convergence from 1.7257825769526357e-05 to 1.7257825769527357e-05 seconds.
Warning: Simulation tolerance relaxed to achieve convergence from 1.7257827118978337e-05 to 1.7257827118979337e-05 seconds.
Warning: Simulation tolerance relaxed to achieve convergence from 1.7257827118988335e-05 to 1.7257827118989335e-05 seconds.
Warning: Simulation tolerance relaxed to achieve convergence from 1.7257829518915327e-05 to 1.7257829518916326e-05 seconds.
Warning: Simulation tolerance relaxed to achieve convergence from 1.7257846475110394e-05 to 1.7257846475111394e-05 seconds.
Warning: Simulation tolerance relaxed to achieve convergence from 1.7257856088697390e-05 to 1.7257856088698389e-05 seconds.
Warning: Simulation tolerance relaxed to achieve convergence from 1.7257857198560412e-05 to 1.7257857198561411e-05 seconds.
Warning: Simulation tolerance relaxed to achieve convergence from 1.7257858529549391e-05 to 1.7257858529550390e-05 seconds.
Warning: Simulation tolerance relaxed to achieve convergence from 1.7257866478007448e-05 to 1.7257866478008448e-05 seconds.
Warning: Simulation tolerance relaxed to achieve convergence from 1.7257868640533439e-05 to 1.7257868640534438e-05 seconds.
Warning: Simulation tolerance relaxed to achieve convergence from 1.7257904931095428e-05 to 1.7257904931096428e-05 seconds.
Warning: Simulation tolerance relaxed to achieve convergence from 1.7257915169101465e-05 to 1.7257915169102465e-05 seconds.
Warning: Simulation tolerance relaxed to achieve convergence from 1.7257915169121462e-05 to 1.7257915169122461e-05 seconds.
Warning: Simulation tolerance relaxed to achieve convergence from 1.7257915795466453e-05 to 1.7257915795467452e-05 seconds.
Warning: Simulation tolerance relaxed to achieve convergence from 1.7257916891150452e-05 to 1.7257916891151451e-05 seconds.
Warning: Simulation tolerance relaxed to achieve convergence from 1.7257917321817435e-05 to 1.7257917321818435e-05 seconds.
Warning: Simulation tolerance relaxed to achieve convergence from 1.7257917322590424e-05 to 1.7257917322591423e-05 seconds.
Warning: Simulation tolerance relaxed to achieve convergence from 1.7257921215651384e-05 to 1.7257921215652383e-05 seconds.
Warning: Simulation tolerance relaxed to achieve convergence from 1.7257922941938371e-05 to 1.7257922941939370e-05 seconds.
Warning: Simulation tolerance relaxed to achieve convergence from 1.7257924433650330e-05 to 1.7257924433651330e-05 seconds.
Warning: Simulation tolerance relaxed to achieve convergence from 1.7257929903136367e-05 to 1.7257929903137366e-05 seconds.
Warning: Simulation tolerance relaxed to achieve convergence from 1.7257940311031802e-05 to 1.7257940311032801e-05 seconds.
Warning: Simulation tolerance relaxed to achieve convergence from 1.7257940633123812e-05 to 1.7257940633124811e-05 seconds.
Warning: Simulation tolerance relaxed to achieve convergence from 1.7257940633513802e-05 to 1.7257940633514802e-05 seconds.
Warning: Simulation tolerance relaxed to achieve convergence from 1.7257943356984801e-05 to 1.7257943356985800e-05 seconds.
Warning: Simulation tolerance relaxed to achieve convergence from 1.7257945899707828e-05 to 1.7257945899708828e-05 seconds.
Warning: Simulation tolerance relaxed to achieve convergence from 1.7257945924286820e-05 to 1.7257945924287820e-05 seconds.
Warning: Simulation tolerance relaxed to achieve convergence from 1.7257945924287820e-05 to 1.7257945924288819e-05 seconds.
Warning: Simulation tolerance relaxed to achieve convergence from 1.7257982788741753e-05 to 1.7257982788742753e-05 seconds.
Warning: Simulation tolerance relaxed to achieve convergence from 1.7257989834089752e-05 to 1.7257989834090751e-05 seconds.
Warning: Simulation tolerance relaxed to achieve convergence from 1.7257989974435745e-05 to 1.7257989974436745e-05 seconds.
Warning: Simulation tolerance relaxed to achieve convergence from 1.7257989975314732e-05 to 1.7257989975315731e-05 seconds.
Warning: Simulation tolerance relaxed to achieve convergence from 1.7257989975324730e-05 to 1.7257989975325729e-05 seconds.
Warning: Simulation tolerance relaxed to achieve convergence from 1.7257991236804732e-05 to 1.7257991236805731e-05 seconds.
Warning: Simulation tolerance relaxed to achieve convergence from 1.7258027350699071e-05 to 1.7258027350700070e-05 seconds.
Warning: Simulation tolerance relaxed to achieve convergence from 1.7258027350700070e-05 to 1.7258027350701070e-05 seconds.
Warning: Simulation tolerance relaxed to achieve convergence from 1.7258028323687068e-05 to 1.7258028323688067e-05 seconds.
Warning: Simulation tolerance relaxed to achieve convergence from 1.7258028517790068e-05 to 1.7258028517791068e-05 seconds.
Warning: Simulation tolerance relaxed to achieve convergence from 1.7258042054046050e-05 to 1.7258042054047049e-05 seconds.
Warning: Simulation tolerance relaxed to achieve convergence from 1.7258053247479075e-05 to 1.7258053247480074e-05 seconds.
Warning: Simulation tolerance relaxed to achieve convergence from 1.7258053604514070e-05 to 1.7258053604515070e-05 seconds.
Warning: Simulation tolerance relaxed to achieve convergence from 1.7258056853837095e-05 to 1.7258056853838094e-05 seconds.
Warning: Simulation tolerance relaxed to achieve convergence from 1.7258057551958092e-05 to 1.7258057551959092e-05 seconds.
Warning: Simulation tolerance relaxed to achieve convergence from 1.7258057552002087e-05 to 1.7258057552003087e-05 seconds.
Warning: Simulation tolerance relaxed to achieve convergence from 1.7258057552004086e-05 to 1.7258057552005086e-05 seconds.
Warning: Simulation tolerance relaxed to achieve convergence from 1.7258090191906125e-05 to 1.7258090191907125e-05 seconds.
Warning: Simulation tolerance relaxed to achieve convergence from 1.7258090499407081e-05 to 1.7258090499408081e-05 seconds.
Warning: Simulation tolerance relaxed to achieve convergence from 1.7258091214751077e-05 to 1.7258091214752077e-05 seconds.
Warning: Simulation tolerance relaxed to achieve convergence from 1.7258091214761076e-05 to 1.7258091214762075e-05 seconds.
Warning: Simulation tolerance relaxed to achieve convergence from 1.7258091307989056e-05 to 1.7258091307990055e-05 seconds.
Warning: Simulation tolerance relaxed to achieve convergence from 1.7258094504797047e-05 to 1.7258094504798047e-05 seconds.
Warning: Simulation tolerance relaxed to achieve convergence from 1.7258094906276048e-05 to 1.7258094906277047e-05 seconds.
Warning: Simulation tolerance relaxed to achieve convergence from 1.7258096853290057e-05 to 1.7258096853291056e-05 seconds.
Warning: Simulation tolerance relaxed to achieve convergence from 1.7258096853575049e-05 to 1.7258096853576049e-05 seconds.
Warning: Simulation tolerance relaxed to achieve convergence from 1.7258097110060038e-05 to 1.7258097110061037e-05 seconds.
Warning: Simulation tolerance relaxed to achieve convergence from 1.7258103953747011e-05 to 1.7258103953748011e-05 seconds.
Warning: Simulation tolerance relaxed to achieve convergence from 1.7258107104367001e-05 to 1.7258107104368001e-05 seconds.
Warning: Simulation tolerance relaxed to achieve convergence from 1.7258107253700990e-05 to 1.7258107253701989e-05 seconds.
Warning: Simulation tolerance relaxed to achieve convergence from 1.7258107398187985e-05 to 1.7258107398188985e-05 seconds.
Warning: Simulation tolerance relaxed to achieve convergence from 1.7258107436903974e-05 to 1.7258107436904974e-05 seconds.
Warning: Simulation tolerance relaxed to achieve convergence from 1.7258107808554960e-05 to 1.7258107808555960e-05 seconds.
Warning: Simulation tolerance relaxed to achieve convergence from 1.7258108927424961e-05 to 1.7258108927425961e-05 seconds.
Warning: Simulation tolerance relaxed to achieve convergence from 1.7258109433569967e-05 to 1.7258109433570966e-05 seconds.
Warning: Simulation tolerance relaxed to achieve convergence from 1.7258112777031972e-05 to 1.7258112777032972e-05 seconds.
Warning: Simulation tolerance relaxed to achieve convergence from 1.7258112886829960e-05 to 1.7258112886830959e-05 seconds.
Warning: Simulation tolerance relaxed to achieve convergence from 1.7258112886830959e-05 to 1.7258112886831959e-05 seconds.
Warning: Simulation tolerance relaxed to achieve convergence from 1.7258112886835957e-05 to 1.7258112886836956e-05 seconds.
Warning: Simulation tolerance relaxed to achieve convergence from 1.7258112886836956e-05 to 1.7258112886837956e-05 seconds.
Warning: Simulation tolerance relaxed to achieve convergence from 1.7258115145517944e-05 to 1.7258115145518943e-05 seconds.
Warning: Simulation tolerance relaxed to achieve convergence from 1.7258115145538944e-05 to 1.7258115145539943e-05 seconds.
Warning: Simulation tolerance relaxed to achieve convergence from 1.7258117074571974e-05 to 1.7258117074572974e-05 seconds.
Warning: Simulation tolerance relaxed to achieve convergence from 1.7258122325306968e-05 to 1.7258122325307967e-05 seconds.
Warning: Simulation tolerance relaxed to achieve convergence from 1.7258122784289975e-05 to 1.7258122784290974e-05 seconds.
Warning: Simulation tolerance relaxed to achieve convergence from 1.7258125288847995e-05 to 1.7258125288848994e-05 seconds.
Warning: Simulation tolerance relaxed to achieve convergence from 1.7258130033077997e-05 to 1.7258130033078997e-05 seconds.
Warning: Simulation tolerance relaxed to achieve convergence from 1.7258137435816959e-05 to 1.7258137435817958e-05 seconds.
Warning: Simulation tolerance relaxed to achieve convergence from 1.7258137435954954e-05 to 1.7258137435955953e-05 seconds.
Warning: Simulation tolerance relaxed to achieve convergence from 1.7258138258223954e-05 to 1.7258138258224954e-05 seconds.
Warning: Simulation tolerance relaxed to achieve convergence from 1.7258138259476953e-05 to 1.7258138259477953e-05 seconds.
Warning: Simulation tolerance relaxed to achieve convergence from 1.7258141527835966e-05 to 1.7258141527836965e-05 seconds.
Warning: Simulation tolerance relaxed to achieve convergence from 1.7258141873925964e-05 to 1.7258141873926964e-05 seconds.
Warning: Simulation tolerance relaxed to achieve convergence from 1.7258141874054961e-05 to 1.7258141874055960e-05 seconds.
Warning: Simulation tolerance relaxed to achieve convergence from 1.7258141874081957e-05 to 1.7258141874082957e-05 seconds.
Warning: Simulation tolerance relaxed to achieve convergence from 1.7258142592682958e-05 to 1.7258142592683957e-05 seconds.
Warning: Simulation tolerance relaxed to achieve convergence from 1.7258143304063928e-05 to 1.7258143304064927e-05 seconds.
Warning: Simulation tolerance relaxed to achieve convergence from 1.7258145811963933e-05 to 1.7258145811964933e-05 seconds.
Warning: Simulation tolerance relaxed to achieve convergence from 1.7258145811967931e-05 to 1.7258145811968931e-05 seconds.
Warning: Simulation tolerance relaxed to achieve convergence from 1.7258151638844913e-05 to 1.7258151638845913e-05 seconds.
Warning: Simulation tolerance relaxed to achieve convergence from 1.7258151638850910e-05 to 1.7258151638851910e-05 seconds.
Warning: Simulation tolerance relaxed to achieve convergence from 1.7258170405551933e-05 to 1.7258170405552932e-05 seconds.
Warning: Simulation tolerance relaxed to achieve convergence from 1.7258170407309926e-05 to 1.7258170407310926e-05 seconds.
Warning: Simulation tolerance relaxed to achieve convergence from 1.7258170407329923e-05 to 1.7258170407330922e-05 seconds.
Warning: Simulation tolerance relaxed to achieve convergence from 1.7258170407331922e-05 to 1.7258170407332921e-05 seconds.
Warning: Simulation tolerance relaxed to achieve convergence from 1.7258170776350912e-05 to 1.7258170776351912e-05 seconds.
Warning: Simulation tolerance relaxed to achieve convergence from 1.7258185587740952e-05 to 1.7258185587741951e-05 seconds.
Warning: Simulation tolerance relaxed to achieve convergence from 1.7258187455641931e-05 to 1.7258187455642930e-05 seconds.
Warning: Simulation tolerance relaxed to achieve convergence from 1.7258188689721931e-05 to 1.7258188689722931e-05 seconds.
Warning: Simulation tolerance relaxed to achieve convergence from 1.7258191640565934e-05 to 1.7258191640566934e-05 seconds.
Warning: Simulation tolerance relaxed to achieve convergence from 1.7258197074748952e-05 to 1.7258197074749952e-05 seconds.
Warning: Simulation tolerance relaxed to achieve convergence from 1.7258217026761057e-05 to 1.7258217026762057e-05 seconds.
Warning: Simulation tolerance relaxed to achieve convergence from 1.7258219462899056e-05 to 1.7258219462900055e-05 seconds.
Warning: Simulation tolerance relaxed to achieve convergence from 1.7258223340290042e-05 to 1.7258223340291041e-05 seconds.
Warning: Simulation tolerance relaxed to achieve convergence from 1.7258223340294040e-05 to 1.7258223340295039e-05 seconds.
Warning: Simulation tolerance relaxed to achieve convergence from 1.7258223340347033e-05 to 1.7258223340348033e-05 seconds.
Warning: Simulation tolerance relaxed to achieve convergence from 1.7258225468060054e-05 to 1.7258225468061054e-05 seconds.
Warning: Simulation tolerance relaxed to achieve convergence from 1.7258225900159032e-05 to 1.7258225900160031e-05 seconds.
Warning: Simulation tolerance relaxed to achieve convergence from 1.7258225900284023e-05 to 1.7258225900285023e-05 seconds.
Warning: Simulation tolerance relaxed to achieve convergence from 1.7258238562369047e-05 to 1.7258238562370047e-05 seconds.
Warning: Simulation tolerance relaxed to achieve convergence from 1.7258238562585041e-05 to 1.7258238562586040e-05 seconds.
Warning: Simulation tolerance relaxed to achieve convergence from 1.7258239435191027e-05 to 1.7258239435192027e-05 seconds.
Warning: Simulation tolerance relaxed to achieve convergence from 1.7258240067000980e-05 to 1.7258240067001979e-05 seconds.
Warning: Simulation tolerance relaxed to achieve convergence from 1.7258241278675983e-05 to 1.7258241278676983e-05 seconds.
Warning: Simulation tolerance relaxed to achieve convergence from 1.7258241665658977e-05 to 1.7258241665659977e-05 seconds.
Warning: Simulation tolerance relaxed to achieve convergence from 1.7258246362751949e-05 to 1.7258246362752948e-05 seconds.
Warning: Simulation tolerance relaxed to achieve convergence from 1.7258250792257959e-05 to 1.7258250792258959e-05 seconds.
Warning: Simulation tolerance relaxed to achieve convergence from 1.7258251466579950e-05 to 1.7258251466580950e-05 seconds.
Warning: Simulation tolerance relaxed to achieve convergence from 1.7258251466594946e-05 to 1.7258251466595946e-05 seconds.
Warning: Simulation tolerance relaxed to achieve convergence from 1.7258251805588929e-05 to 1.7258251805589929e-05 seconds.
Warning: Simulation tolerance relaxed to achieve convergence from 1.7258251864554921e-05 to 1.7258251864555921e-05 seconds.
Warning: Simulation tolerance relaxed to achieve convergence from 1.7258251864720916e-05 to 1.7258251864721915e-05 seconds.
Warning: Simulation tolerance relaxed to achieve convergence from 1.7258251864839914e-05 to 1.7258251864840913e-05 seconds.
Warning: Simulation tolerance relaxed to achieve convergence from 1.7258252880762903e-05 to 1.7258252880763902e-05 seconds.
Warning: Simulation tolerance relaxed to achieve convergence from 1.7258256888106913e-05 to 1.7258256888107913e-05 seconds.
Warning: Simulation tolerance relaxed to achieve convergence from 1.7258257668156898e-05 to 1.7258257668157898e-05 seconds.
Warning: Simulation tolerance relaxed to achieve convergence from 1.7258258548073901e-05 to 1.7258258548074900e-05 seconds.
Warning: Simulation tolerance relaxed to achieve convergence from 1.7258260626666922e-05 to 1.7258260626667922e-05 seconds.
Warning: Simulation tolerance relaxed to achieve convergence from 1.7258261075224919e-05 to 1.7258261075225918e-05 seconds.
Warning: Simulation tolerance relaxed to achieve convergence from 1.7258262498212907e-05 to 1.7258262498213907e-05 seconds.
Warning: Simulation tolerance relaxed to achieve convergence from 1.7258263942637918e-05 to 1.7258263942638917e-05 seconds.
Warning: Simulation tolerance relaxed to achieve convergence from 1.7258264019155913e-05 to 1.7258264019156912e-05 seconds.
Warning: Simulation tolerance relaxed to achieve convergence from 1.7258269017170936e-05 to 1.7258269017171935e-05 seconds.
Warning: Simulation tolerance relaxed to achieve convergence from 1.7258269563855937e-05 to 1.7258269563856937e-05 seconds.
Warning: Simulation tolerance relaxed to achieve convergence from 1.7258269563856937e-05 to 1.7258269563857936e-05 seconds.
Warning: Simulation tolerance relaxed to achieve convergence from 1.7258270691913932e-05 to 1.7258270691914931e-05 seconds.
Warning: Simulation tolerance relaxed to achieve convergence from 1.7258280840352926e-05 to 1.7258280840353925e-05 seconds.
Warning: Simulation tolerance relaxed to achieve convergence from 1.7258280938313926e-05 to 1.7258280938314926e-05 seconds.
Warning: Simulation tolerance relaxed to achieve convergence from 1.7258280938322925e-05 to 1.7258280938323925e-05 seconds.
Warning: Simulation tolerance relaxed to achieve convergence from 1.7258282033148937e-05 to 1.7258282033149937e-05 seconds.
Warning: Simulation tolerance relaxed to achieve convergence from 1.7258283415233966e-05 to 1.7258283415234965e-05 seconds.
Warning: Simulation tolerance relaxed to achieve convergence from 1.7258283416305964e-05 to 1.7258283416306963e-05 seconds.
Warning: Simulation tolerance relaxed to achieve convergence from 1.7258283416306963e-05 to 1.7258283416307963e-05 seconds.
Warning: Simulation tolerance relaxed to achieve convergence from 1.7258289191101956e-05 to 1.7258289191102956e-05 seconds.
Warning: Simulation tolerance relaxed to achieve convergence from 1.7258289613511964e-05 to 1.7258289613512964e-05 seconds.
Warning: Simulation tolerance relaxed to achieve convergence from 1.7258301109137952e-05 to 1.7258301109138952e-05 seconds.
Warning: Simulation tolerance relaxed to achieve convergence from 1.7258301109138952e-05 to 1.7258301109139951e-05 seconds.
Warning: Simulation tolerance relaxed to achieve convergence from 1.7258301363205942e-05 to 1.7258301363206942e-05 seconds.
Warning: Simulation tolerance relaxed to achieve convergence from 1.7258301363235937e-05 to 1.7258301363236937e-05 seconds.
Warning: Simulation tolerance relaxed to achieve convergence from 1.7258304093021949e-05 to 1.7258304093022949e-05 seconds.
Warning: Simulation tolerance relaxed to achieve convergence from 1.7258311511911941e-05 to 1.7258311511912941e-05 seconds.
Warning: Simulation tolerance relaxed to achieve convergence from 1.7258311511914940e-05 to 1.7258311511915939e-05 seconds.
Warning: Simulation tolerance relaxed to achieve convergence from 1.7258311652611930e-05 to 1.7258311652612930e-05 seconds.
[...]
Warning: Simulation tolerance relaxed to achieve convergence from 1.7263424718871554e-05 to 1.7263424718872553e-05 seconds.
Warning: Simulation tolerance relaxed to achieve convergence from 1.7263425282774550e-05 to 1.7263425282775549e-05 seconds.
Warning: Simulation tolerance relaxed to achieve convergence from 1.7263425283854537e-05 to 1.7263425283855536e-05 seconds.
Warning: Simulation tolerance relaxed to achieve convergence from 1.7263426083673522e-05 to 1.7263426083674522e-05 seconds.
Warning: Simulation tolerance relaxed to achieve convergence from 1.7263426083682521e-05 to 1.7263426083683520e-05 seconds.
Warning: Simulation tolerance relaxed to achieve convergence from 1.7263427473428515e-05 to 1.7263427473429515e-05 seconds.
Warning: Simulation tolerance relaxed to achieve convergence from 1.7263432491910497e-05 to 1.7263432491911496e-05 seconds.
Warning: Simulation tolerance relaxed to achieve convergence from 1.7263432491912496e-05 to 1.7263432491913495e-05 seconds.
Warning: Simulation tolerance relaxed to achieve convergence from 1.7263432511784465e-05 to 1.7263432511785464e-05 seconds.
Warning: Simulation tolerance relaxed to achieve convergence from 1.7263432512012459e-05 to 1.7263432512013458e-05 seconds.
Warning: Simulation tolerance relaxed to achieve convergence from 1.7263432606273446e-05 to 1.7263432606274446e-05 seconds.
Warning: Simulation tolerance relaxed to achieve convergence from 1.7263432606274446e-05 to 1.7263432606275445e-05 seconds.
Warning: Simulation tolerance relaxed to achieve convergence from 1.7263433803558421e-05 to 1.7263433803559420e-05 seconds.
Warning: Simulation tolerance relaxed to achieve convergence from 1.7263434882257403e-05 to 1.7263434882258403e-05 seconds.
Warning: Simulation tolerance relaxed to achieve convergence from 1.7263436733609415e-05 to 1.7263436733610414e-05 seconds.
Warning: Simulation tolerance relaxed to achieve convergence from 1.7263437278943405e-05 to 1.7263437278944405e-05 seconds.
Warning: Simulation tolerance relaxed to achieve convergence from 1.7263447245269435e-05 to 1.7263447245270435e-05 seconds.
Warning: Simulation tolerance relaxed to achieve convergence from 1.7263452862781438e-05 to 1.7263452862782438e-05 seconds.
Warning: Simulation tolerance relaxed to achieve convergence from 1.7263452888270438e-05 to 1.7263452888271438e-05 seconds.
Warning: Simulation tolerance relaxed to achieve convergence from 1.7263454195714446e-05 to 1.7263454195715445e-05 seconds.
Warning: Simulation tolerance relaxed to achieve convergence from 1.7263459858527468e-05 to 1.7263459858528468e-05 seconds.
Warning: Simulation tolerance relaxed to achieve convergence from 1.7263459858528468e-05 to 1.7263459858529467e-05 seconds.
Warning: Simulation tolerance relaxed to achieve convergence from 1.7263459858530467e-05 to 1.7263459858531466e-05 seconds.
Warning: Simulation tolerance relaxed to achieve convergence from 1.7263470965571450e-05 to 1.7263470965572450e-05 seconds.
Warning: Simulation tolerance relaxed to achieve convergence from 1.7263471988379458e-05 to 1.7263471988380458e-05 seconds.
Warning: Simulation tolerance relaxed to achieve convergence from 1.7263473377326437e-05 to 1.7263473377327436e-05 seconds.
Warning: Simulation tolerance relaxed to achieve convergence from 1.7263473377343435e-05 to 1.7263473377344434e-05 seconds.
Warning: Simulation tolerance relaxed to achieve convergence from 1.7263475625706423e-05 to 1.7263475625707422e-05 seconds.
Warning: Simulation tolerance relaxed to achieve convergence from 1.7263475625707422e-05 to 1.7263475625708422e-05 seconds.
Warning: Simulation tolerance relaxed to achieve convergence from 1.7263476390271429e-05 to 1.7263476390272429e-05 seconds.
Warning: Simulation tolerance relaxed to achieve convergence from 1.7263476390298426e-05 to 1.7263476390299425e-05 seconds.
Warning: Simulation tolerance relaxed to achieve convergence from 1.7263476390448422e-05 to 1.7263476390449421e-05 seconds.
Warning: Simulation tolerance relaxed to achieve convergence from 1.7263482119812383e-05 to 1.7263482119813382e-05 seconds.
Warning: Simulation tolerance relaxed to achieve convergence from 1.7263482635504388e-05 to 1.7263482635505387e-05 seconds.
Warning: Simulation tolerance relaxed to achieve convergence from 1.7263482635518384e-05 to 1.7263482635519383e-05 seconds.
Warning: Simulation tolerance relaxed to achieve convergence from 1.7263484724051398e-05 to 1.7263484724052397e-05 seconds.
Warning: Simulation tolerance relaxed to achieve convergence from 1.7263484724202393e-05 to 1.7263484724203393e-05 seconds.
Warning: Simulation tolerance relaxed to achieve convergence from 1.7263500183837380e-05 to 1.7263500183838379e-05 seconds.
Warning: Simulation tolerance relaxed to achieve convergence from 1.7263501996799371e-05 to 1.7263501996800371e-05 seconds.
Warning: Simulation tolerance relaxed to achieve convergence from 1.7263502966672391e-05 to 1.7263502966673390e-05 seconds.
Warning: Simulation tolerance relaxed to achieve convergence from 1.7263508089695429e-05 to 1.7263508089696429e-05 seconds.
Warning: Simulation tolerance relaxed to achieve convergence from 1.7263508089696429e-05 to 1.7263508089697428e-05 seconds.
Warning: Simulation tolerance relaxed to achieve convergence from 1.7263515999411473e-05 to 1.7263515999412473e-05 seconds.
Warning: Simulation tolerance relaxed to achieve convergence from 1.7263515999422471e-05 to 1.7263515999423471e-05 seconds.
Warning: Simulation tolerance relaxed to achieve convergence from 1.7263516300736475e-05 to 1.7263516300737475e-05 seconds.
Warning: Simulation tolerance relaxed to achieve convergence from 1.7263527767956451e-05 to 1.7263527767957450e-05 seconds.
Warning: Simulation tolerance relaxed to achieve convergence from 1.7263528570256456e-05 to 1.7263528570257456e-05 seconds.
Warning: Simulation tolerance relaxed to achieve convergence from 1.7263530255269469e-05 to 1.7263530255270469e-05 seconds.
Warning: Simulation tolerance relaxed to achieve convergence from 1.7263530257544464e-05 to 1.7263530257545464e-05 seconds.
Warning: Simulation tolerance relaxed to achieve convergence from 1.7263530257679454e-05 to 1.7263530257680454e-05 seconds.
Warning: Simulation tolerance relaxed to achieve convergence from 1.7263530726008453e-05 to 1.7263530726009453e-05 seconds.
Warning: Simulation tolerance relaxed to achieve convergence from 1.7263531705306446e-05 to 1.7263531705307445e-05 seconds.
Warning: Simulation tolerance relaxed to achieve convergence from 1.7263531933096417e-05 to 1.7263531933097417e-05 seconds.
Warning: Simulation tolerance relaxed to achieve convergence from 1.7263531953192416e-05 to 1.7263531953193416e-05 seconds.
Warning: Simulation tolerance relaxed to achieve convergence from 1.7263531953193416e-05 to 1.7263531953194415e-05 seconds.
Warning: Simulation tolerance relaxed to achieve convergence from 1.7263531953672410e-05 to 1.7263531953673409e-05 seconds.
Warning: Simulation tolerance relaxed to achieve convergence from 1.7263531953675408e-05 to 1.7263531953676408e-05 seconds.
Warning: Simulation tolerance relaxed to achieve convergence from 1.7263531953689408e-05 to 1.7263531953690407e-05 seconds.
Warning: Simulation tolerance relaxed to achieve convergence from 1.7263531953710408e-05 to 1.7263531953711407e-05 seconds.
Warning: Simulation tolerance relaxed to achieve convergence from 1.7263533169092400e-05 to 1.7263533169093399e-05 seconds.
Warning: Simulation tolerance relaxed to achieve convergence from 1.7263533169095398e-05 to 1.7263533169096398e-05 seconds.
Warning: Simulation tolerance relaxed to achieve convergence from 1.7263533169097397e-05 to 1.7263533169098397e-05 seconds.
Warning: Simulation tolerance relaxed to achieve convergence from 1.7263533169098397e-05 to 1.7263533169099396e-05 seconds.
Warning: Simulation tolerance relaxed to achieve convergence from 1.7263533717732380e-05 to 1.7263533717733380e-05 seconds.
Warning: Simulation tolerance relaxed to achieve convergence from 1.7263533717739380e-05 to 1.7263533717740380e-05 seconds.
Warning: Simulation tolerance relaxed to achieve convergence from 1.7263537666774381e-05 to 1.7263537666775381e-05 seconds.
Warning: Simulation tolerance relaxed to achieve convergence from 1.7263538052707369e-05 to 1.7263538052708369e-05 seconds.
Warning: Simulation tolerance relaxed to achieve convergence from 1.7263538052710368e-05 to 1.7263538052711367e-05 seconds.
Warning: Simulation tolerance relaxed to achieve convergence from 1.7263538053264365e-05 to 1.7263538053265364e-05 seconds.
Warning: Simulation tolerance relaxed to achieve convergence from 1.7263538053282363e-05 to 1.7263538053283362e-05 seconds.
Warning: Simulation tolerance relaxed to achieve convergence from 1.7263538053283362e-05 to 1.7263538053284361e-05 seconds.
Warning: Simulation tolerance relaxed to achieve convergence from 1.7263538516563347e-05 to 1.7263538516564346e-05 seconds.
Warning: Simulation tolerance relaxed to achieve convergence from 1.7263538722750340e-05 to 1.7263538722751339e-05 seconds.
Warning: Simulation tolerance relaxed to achieve convergence from 1.7263538722751339e-05 to 1.7263538722752339e-05 seconds.
Warning: Simulation tolerance relaxed to achieve convergence from 1.7263538722753338e-05 to 1.7263538722754338e-05 seconds.
Warning: Simulation tolerance relaxed to achieve convergence from 1.7263538722756337e-05 to 1.7263538722757336e-05 seconds.
Warning: Simulation tolerance relaxed to achieve convergence from 1.7263555597775351e-05 to 1.7263555597776351e-05 seconds.
Warning: Simulation tolerance relaxed to achieve convergence from 1.7263558661555348e-05 to 1.7263558661556347e-05 seconds.
Warning: Simulation tolerance relaxed to achieve convergence from 1.7263558661556347e-05 to 1.7263558661557347e-05 seconds.
Warning: Simulation tolerance relaxed to achieve convergence from 1.7263558661559346e-05 to 1.7263558661560345e-05 seconds.
Warning: Simulation tolerance relaxed to achieve convergence from 1.7263561679976351e-05 to 1.7263561679977350e-05 seconds.
Warning: Simulation tolerance relaxed to achieve convergence from 1.7263563591945351e-05 to 1.7263563591946350e-05 seconds.
Warning: Simulation tolerance relaxed to achieve convergence from 1.7263563591952350e-05 to 1.7263563591953350e-05 seconds.
Warning: Simulation tolerance relaxed to achieve convergence from 1.7263564137155356e-05 to 1.7263564137156356e-05 seconds.
Warning: Simulation tolerance relaxed to achieve convergence from 1.7263565816198366e-05 to 1.7263565816199365e-05 seconds.
Warning: Simulation tolerance relaxed to achieve convergence from 1.7263568464402376e-05 to 1.7263568464403375e-05 seconds.
Warning: Simulation tolerance relaxed to achieve convergence from 1.7263568464404375e-05 to 1.7263568464405374e-05 seconds.
Warning: Simulation tolerance relaxed to achieve convergence from 1.7263569185441367e-05 to 1.7263569185442367e-05 seconds.
Warning: Simulation tolerance relaxed to achieve convergence from 1.7263570073238358e-05 to 1.7263570073239357e-05 seconds.
Warning: Simulation tolerance relaxed to achieve convergence from 1.7263573213346347e-05 to 1.7263573213347347e-05 seconds.
Warning: Simulation tolerance relaxed to achieve convergence from 1.7263574370715337e-05 to 1.7263574370716337e-05 seconds.
Warning: Simulation tolerance relaxed to achieve convergence from 1.7263574370718336e-05 to 1.7263574370719335e-05 seconds.
Warning: Simulation tolerance relaxed to achieve convergence from 1.7263575469049353e-05 to 1.7263575469050353e-05 seconds.
Warning: Simulation tolerance relaxed to achieve convergence from 1.7263576611653353e-05 to 1.7263576611654353e-05 seconds.
Warning: Simulation tolerance relaxed to achieve convergence from 1.7263576625689350e-05 to 1.7263576625690349e-05 seconds.
Warning: Simulation tolerance relaxed to achieve convergence from 1.7263576625718345e-05 to 1.7263576625719345e-05 seconds.
Warning: Simulation tolerance relaxed to achieve convergence from 1.7263576691774338e-05 to 1.7263576691775338e-05 seconds.
Warning: Simulation tolerance relaxed to achieve convergence from 1.7263579188600337e-05 to 1.7263579188601336e-05 seconds.
Warning: Simulation tolerance relaxed to achieve convergence from 1.7263582049508316e-05 to 1.7263582049509316e-05 seconds.
Warning: Simulation tolerance relaxed to achieve convergence from 1.7263582049520313e-05 to 1.7263582049521313e-05 seconds.
Warning: Simulation tolerance relaxed to achieve convergence from 1.7263582286562294e-05 to 1.7263582286563294e-05 seconds.
Warning: Simulation tolerance relaxed to achieve convergence from 1.7263582286582291e-05 to 1.7263582286583290e-05 seconds.
Warning: Simulation tolerance relaxed to achieve convergence from 1.7263582687905285e-05 to 1.7263582687906284e-05 seconds.
Warning: Simulation tolerance relaxed to achieve convergence from 1.7263582754824266e-05 to 1.7263582754825265e-05 seconds.
Warning: Simulation tolerance relaxed to achieve convergence from 1.7263582756136262e-05 to 1.7263582756137262e-05 seconds.
Warning: Simulation tolerance relaxed to achieve convergence from 1.7263586052835269e-05 to 1.7263586052836269e-05 seconds.
Warning: Simulation tolerance relaxed to achieve convergence from 1.7263586591770272e-05 to 1.7263586591771271e-05 seconds.
Warning: Simulation tolerance relaxed to achieve convergence from 1.7263586739484273e-05 to 1.7263586739485272e-05 seconds.
Warning: Simulation tolerance relaxed to achieve convergence from 1.7263586758560265e-05 to 1.7263586758561264e-05 seconds.
Warning: Simulation tolerance relaxed to achieve convergence from 1.7263587027412249e-05 to 1.7263587027413249e-05 seconds.
Warning: Simulation tolerance relaxed to achieve convergence from 1.7263587027428248e-05 to 1.7263587027429247e-05 seconds.
Warning: Simulation tolerance relaxed to achieve convergence from 1.7263587027429247e-05 to 1.7263587027430247e-05 seconds.
Warning: Simulation tolerance relaxed to achieve convergence from 1.7263587637633250e-05 to 1.7263587637634249e-05 seconds.
Warning: Simulation tolerance relaxed to achieve convergence from 1.7263595525772268e-05 to 1.7263595525773267e-05 seconds.
Warning: Simulation tolerance relaxed to achieve convergence from 1.7263596636816298e-05 to 1.7263596636817297e-05 seconds.
Warning: Simulation tolerance relaxed to achieve convergence from 1.7263597876436294e-05 to 1.7263597876437293e-05 seconds.
Warning: Simulation tolerance relaxed to achieve convergence from 1.7263599638419289e-05 to 1.7263599638420288e-05 seconds.
Warning: Simulation tolerance relaxed to achieve convergence from 1.7263599638420288e-05 to 1.7263599638421288e-05 seconds.
Warning: Simulation tolerance relaxed to achieve convergence from 1.7263599638599283e-05 to 1.7263599638600283e-05 seconds.
Warning: Simulation tolerance relaxed to achieve convergence from 1.7263599638608282e-05 to 1.7263599638609282e-05 seconds.
Warning: Simulation tolerance relaxed to achieve convergence from 1.7263650447241323e-05 to 1.7263650447242322e-05 seconds.
Warning: Simulation tolerance relaxed to achieve convergence from 1.7263650447895317e-05 to 1.7263650447896317e-05 seconds.
Warning: Simulation tolerance relaxed to achieve convergence from 1.7263650447896317e-05 to 1.7263650447897316e-05 seconds.
Warning: Simulation tolerance relaxed to achieve convergence from 1.7263650447930313e-05 to 1.7263650447931313e-05 seconds.
Warning: Simulation tolerance relaxed to achieve convergence from 1.7263651916260301e-05 to 1.7263651916261300e-05 seconds.
Warning: Simulation tolerance relaxed to achieve convergence from 1.7263651916263299e-05 to 1.7263651916264299e-05 seconds.
Warning: Simulation tolerance relaxed to achieve convergence from 1.7263651916273298e-05 to 1.7263651916274297e-05 seconds.
Warning: Simulation tolerance relaxed to achieve convergence from 1.7263652398891302e-05 to 1.7263652398892302e-05 seconds.
Warning: Simulation tolerance relaxed to achieve convergence from 1.7263652399636298e-05 to 1.7263652399637298e-05 seconds.
Warning: Simulation tolerance relaxed to achieve convergence from 1.7263652473472282e-05 to 1.7263652473473282e-05 seconds.
Warning: Simulation tolerance relaxed to achieve convergence from 1.7263668869176372e-05 to 1.7263668869177371e-05 seconds.
Warning: Simulation tolerance relaxed to achieve convergence from 1.7263673972282372e-05 to 1.7263673972283372e-05 seconds.
Warning: Simulation tolerance relaxed to achieve convergence from 1.7263673972285371e-05 to 1.7263673972286370e-05 seconds.
Warning: Simulation tolerance relaxed to achieve convergence from 1.7263675389788371e-05 to 1.7263675389789370e-05 seconds.
Warning: Simulation tolerance relaxed to achieve convergence from 1.7263680033431388e-05 to 1.7263680033432388e-05 seconds.
Warning: Simulation tolerance relaxed to achieve convergence from 1.7263689033746415e-05 to 1.7263689033747414e-05 seconds.
Warning: Simulation tolerance relaxed to achieve convergence from 1.7263693176998417e-05 to 1.7263693176999416e-05 seconds.
Warning: Simulation tolerance relaxed to achieve convergence from 1.7263693177024414e-05 to 1.7263693177025413e-05 seconds.
Warning: Simulation tolerance relaxed to achieve convergence from 1.7263693657099402e-05 to 1.7263693657100401e-05 seconds.
Warning: Simulation tolerance relaxed to achieve convergence from 1.7263701258837414e-05 to 1.7263701258838413e-05 seconds.
Warning: Simulation tolerance relaxed to achieve convergence from 1.7263708158977456e-05 to 1.7263708158978456e-05 seconds.
Warning: Simulation tolerance relaxed to achieve convergence from 1.7263708558593428e-05 to 1.7263708558594428e-05 seconds.
Warning: Simulation tolerance relaxed to achieve convergence from 1.7263712998413420e-05 to 1.7263712998414420e-05 seconds.
Warning: Simulation tolerance relaxed to achieve convergence from 1.7263715640351439e-05 to 1.7263715640352439e-05 seconds.
Warning: Simulation tolerance relaxed to achieve convergence from 1.7263720286341446e-05 to 1.7263720286342446e-05 seconds.
Warning: Simulation tolerance relaxed to achieve convergence from 1.7263720286347443e-05 to 1.7263720286348443e-05 seconds.
Warning: Simulation tolerance relaxed to achieve convergence from 1.7263721982683457e-05 to 1.7263721982684457e-05 seconds.
Warning: Simulation tolerance relaxed to achieve convergence from 1.7263721982684457e-05 to 1.7263721982685456e-05 seconds.
Warning: Simulation tolerance relaxed to achieve convergence from 1.7263724990259484e-05 to 1.7263724990260484e-05 seconds.

Simulation stopped by user.
Total elapsed time: 259.708 seconds.

Files loaded:
C:\users\sebastian\Desktop\FIUBA-2do Cuatrimestre\Taller de Diseño Electrónico TA138\TP_Taller_de_Diseño_ TA138_G7\Simulación\BUCK\CircuitoCompleteo_buck_sincrono_pwm.net
C:\users\sebastian\AppData\Local\LTspice\lib\cmp\standard.dio
C:\users\sebastian\AppData\Local\LTspice\lib\cmp\standard.bjt
C:\users\sebastian\AppData\Local\LTspice\lib\cmp\standard.mos
C:\users\sebastian\Desktop\FIUBA-2do Cuatrimestre\Taller de Diseño Electrónico TA138\TP_Taller_de_Diseño_ TA138_G7\Simulación\BUCK\Modelos\lm393.lib
C:\users\sebastian\Desktop\FIUBA-2do Cuatrimestre\Taller de Diseño Electrónico TA138\TP_Taller_de_Diseño_ TA138_G7\Simulación\BUCK\Modelos\TL082.txt
C:\users\sebastian\Desktop\FIUBA-2do Cuatrimestre\Taller de Diseño Electrónico TA138\TP_Taller_de_Diseño_ TA138_G7\Simulación\BUCK\Modelos\lm358.txt
C:\users\sebastian\Desktop\FIUBA-2do Cuatrimestre\Taller de Diseño Electrónico TA138\TP_Taller_de_Diseño_ TA138_G7\Simulación\BUCK\Modelos\TL431.spi
C:\users\sebastian\Desktop\FIUBA-2do Cuatrimestre\Taller de Diseño Electrónico TA138\TP_Taller_de_Diseño_ TA138_G7\Simulación\BUCK\LM319.txt
C:\users\sebastian\Desktop\FIUBA-2do Cuatrimestre\Taller de Diseño Electrónico TA138\TP_Taller_de_Diseño_ TA138_G7\Simulación\BUCK\Modelos\irf3205.spi
C:\users\sebastian\Desktop\FIUBA-2do Cuatrimestre\Taller de Diseño Electrónico TA138\TP_Taller_de_Diseño_ TA138_G7\Simulación\BUCK\Modelos\ir2111.lib

