LTspice 24.1.5 for Windows
Circuit: C:\Users\ramaz\Desktop\Circuitos II\TP-TA138-G7\Simulación\BUCK\CircuitoCompleteo_buck_sincrono_pwm.net
Start Time: Wed May 27 17:35:59 2026
solver = Normal
Maximum thread count: 12
tnom = 27
temp = 27
method = trap
Instance "u3:x_gd_template:x_ho_stage:M_HO_PMOS": Length shorter than recommended for a level 1 MOSFET.
Instance "u3:x_gd_template:x_ho_stage:M_HO_NMOS": Length shorter than recommended for a level 1 MOSFET.
Instance "u3:x_gd_template:x_lo_stage:M_LO_PMOS": Length shorter than recommended for a level 1 MOSFET.
Instance "u3:x_gd_template:x_lo_stage:M_LO_NMOS": Length shorter than recommended for a level 1 MOSFET.
Direct Newton iteration failed to find .op point.  (Use ".option noopiter" to skip.)
Starting Gmin stepping
Increasing initial diagonal Gmin to 100
Gmin = 100
vernier = 0.5
vernier = 0.25
Gmin = 34.2672
vernier = 0.125
vernier = 0.0625
vernier = 0.03125
vernier = 0.015625
Gmin = 32.9712
vernier = 0.0078125
vernier = 0.00390625
vernier = 0.00195312
Gmin = 32.8427
vernier = 0.000976562
vernier = 0.000488281
Gmin = 0
Gmin stepping failed

Starting source stepping with srcstepmethod=0
Source Step = 3.0303%
Source Step = 25.7576%
Source Step = 33.3333%
Source Step = 40.9091%
Source Step = 48.4848%
Source Step = 50.0118%
Starting source stepping with srcstepmethod=1
Source Step = 3.0303%
Source Step = 28.0303%
vernier = 0.0625
Source stepping failed

Pseudo Transient failed in finding the operating point at 5.00122 µs.
Trouble finding operating point....skipping operating point for Transient analysis.
Changing Tseed to 1e-07
Changing Tseed to 1e-09
Changing Tseed to 1e-06
Changing Tseed to 1e-10
Changing Tseed to 1e-05
Changing Tseed to 1e-11
Changing Tseed to 0.0001
Changing Tseed to 1e-12
Changing Tseed to 0.001
Changing Tseed to 1e-13
Changing Tseed to 0.01
Changing Tseed to 1e-14

Convergence Failure:  Time step too small; initial timepoint: trouble with instance "u1:J2"

Simulation Failed: Iteration limit reached

Total elapsed time: 4.819 seconds.

Files loaded:
C:\Users\ramaz\Desktop\Circuitos II\TP-TA138-G7\Simulación\BUCK\CircuitoCompleteo_buck_sincrono_pwm.net
C:\Users\ramaz\AppData\Local\LTspice\lib\cmp\standard.dio
C:\Users\ramaz\AppData\Local\LTspice\lib\cmp\standard.bjt
C:\Users\ramaz\Desktop\Circuitos II\TP-TA138-G7\Simulación\BUCK\Modelos\irf4905.spi
C:\Users\ramaz\Desktop\Circuitos II\TP-TA138-G7\Simulación\BUCK\Modelos\TL431.spi
C:\Users\ramaz\Desktop\Circuitos II\TP-TA138-G7\Simulación\BUCK\Modelos\LM358.txt
C:\Users\ramaz\Desktop\Circuitos II\TP-TA138-G7\Simulación\BUCK\Modelos\LM324.txt
C:\Users\ramaz\Desktop\Circuitos II\TP-TA138-G7\Simulación\BUCK\Modelos\IR2111.lib
C:\Users\ramaz\Desktop\Circuitos II\TP-TA138-G7\Simulación\BUCK\Modelos\TL082.txt
C:\Users\ramaz\Desktop\Circuitos II\TP-TA138-G7\Simulación\BUCK\Modelos\LM319.txt
C:\Users\ramaz\Desktop\Circuitos II\TP-TA138-G7\Simulación\BUCK\Modelos\irf3205.spi

