LTspice 24.1.5 for Windows
Circuit: C:\users\sebastian\Desktop\FIUBA-2do Cuatrimestre\Taller de Diseño Electrónico TA138\TP_Taller_de_Diseño_ TA138_G7\Simulación\BUCK\Draft3.net
Start Time: Sun May 24 11:00:30 2026
solver = Normal
Maximum thread count: 4
tnom = 27
temp = 27
method = trap
Direct Newton iteration failed to find .op point.  (Use ".option noopiter" to skip.)
Starting Gmin stepping
Increasing initial diagonal Gmin to 100
Increasing initial diagonal Gmin to 1000
Gmin = 1000
Gmin = 107.374
Gmin = 11.5292
Gmin = 1.23794
Gmin = 0.132923
Gmin = 0.0142725
Gmin = 0.0015325
Gmin = 0.00016455
Gmin = 1.76685e-05
Gmin = 1.89714e-06
Gmin = 2.03704e-07
vernier = 0.5
Gmin = 4.21923e-08
vernier = 0.25
vernier = 0.125
Gmin = 3.02922e-08
vernier = 0.0625
vernier = 0.03125
Gmin = 2.76063e-08
vernier = 0.015625
vernier = 0.0078125
Gmin = 2.70732e-08
vernier = 0.0104167
vernier = 0.00520833
Gmin = 2.66713e-08
vernier = 0.00694444
vernier = 0.00925925
vernier = 0.00462963
Gmin = 2.63265e-08
vernier = 0.00617283
Gmin = 2.59737e-08
vernier = 0.00823044
vernier = 0.00411522
Gmin = 2.56157e-08
vernier = 0.00548696
vernier = 0.00731595
Gmin = 2.52814e-08
vernier = 0.00975459
vernier = 0.0048773
Gmin = 2.49601e-08
vernier = 0.00650306
vernier = 0.00867074
vernier = 0.00433537
Gmin = 2.46578e-08
vernier = 0.00578049
Gmin = 2.43482e-08
vernier = 0.00770732
vernier = 0.00385366
vernier = 0.00513821
Gmin = 2.41342e-08
vernier = 0.00685095
vernier = 0.00342548
Gmin = 2.39285e-08
vernier = 0.0045673
vernier = 0.00608973
Gmin = 2.36368e-08
vernier = 0.00811964
vernier = 0.00405982
Gmin = 2.34101e-08
vernier = 0.00541309
vernier = 0.00721745
vernier = 0.00360873
Gmin = 2.31791e-08
vernier = 0.00481163
vernier = 0.00641551
Gmin = 2.29136e-08
vernier = 0.00320776
vernier = 0.00427701
Gmin = 2.2761e-08
vernier = 0.00570267
vernier = 0.00285134
Gmin = 2.25512e-08
vernier = 0.00380178
vernier = 0.00506904
Gmin = 2.23468e-08
vernier = 0.00675872
vernier = 0.00337936
Gmin = 2.21496e-08
vernier = 0.00450581
vernier = 0.00600775
vernier = 0.00300387
Gmin = 2.19634e-08
vernier = 0.00400516
Gmin = 2.17718e-08
vernier = 0.00534022
vernier = 0.00267011
vernier = 0.00356014
Gmin = 2.16391e-08
vernier = 0.00474686
Gmin = 2.14093e-08
vernier = 0.00632914
vernier = 0.00316457
vernier = 0.00421943
Gmin = 2.12575e-08
vernier = 0.0056259
vernier = 0.00281295
Gmin = 2.1116e-08
vernier = 0.0037506
vernier = 0.0050008
vernier = 0.0025004
Gmin = 2.09714e-08
vernier = 0.00333386
vernier = 0.00444515
Gmin = 2.08046e-08
vernier = 0.00592687
vernier = 0.00296343
Gmin = 2.06435e-08
vernier = 0.00395124
vernier = 0.00526832
vernier = 0.00263416
Gmin = 2.04912e-08
vernier = 0.00351222
Gmin = 2.03344e-08
vernier = 0.00468295
vernier = 0.00234148
vernier = 0.00312197
Gmin = 2.02256e-08
vernier = 0.00416262
Gmin = 2.00372e-08
vernier = 0.00555016
vernier = 0.00277508
vernier = 0.00370011
Gmin = 1.99125e-08
vernier = 0.00493347
vernier = 0.00246674
Gmin = 1.97962e-08
vernier = 0.00328898
vernier = 0.00438531
Gmin = 1.96127e-08
vernier = 0.00584708
vernier = 0.00292354
vernier = 0.00146177
Gmin = 1.9534e-08
vernier = 0.00194903
vernier = 0.0025987
Gmin = 1.94265e-08
vernier = 0.00346493
vernier = 0.00461991
vernier = 0.00230995
Gmin = 1.93007e-08
vernier = 0.00307994
Gmin = 1.91712e-08
vernier = 0.00410658
vernier = 0.00547544
vernier = 0.00273772
Gmin = 1.90258e-08
vernier = 0.00365029
Gmin = 1.88703e-08
vernier = 0.00486706
vernier = 0.00243353
vernier = 0.0032447
Gmin = 1.87673e-08
vernier = 0.00432627
vernier = 0.00216314
Gmin = 1.86711e-08
vernier = 0.00288418
vernier = 0.00384557
Gmin = 1.85192e-08
vernier = 0.00512743
vernier = 0.00256371
vernier = 0.00128186
Gmin = 1.84541e-08
vernier = 0.00170914
vernier = 0.00227886
Gmin = 1.8365e-08
vernier = 0.00303847
vernier = 0.0040513
vernier = 0.00202565
Gmin = 1.82607e-08
vernier = 0.00270086
Gmin = 1.81531e-08
vernier = 0.00360115
vernier = 0.00480153
vernier = 0.00240077
Gmin = 1.80324e-08
vernier = 0.00320102
Gmin = 1.7903e-08
vernier = 0.00426803
vernier = 0.00213401
vernier = 0.00284535
Gmin = 1.78173e-08
vernier = 0.0037938
vernier = 0.0018969
Gmin = 1.77372e-08
vernier = 0.0025292
vernier = 0.00337227
Gmin = 1.76106e-08
vernier = 0.00449635
vernier = 0.00224818
vernier = 0.00299757
Gmin = 1.75185e-08
vernier = 0.00399676
vernier = 0.00199838
Gmin = 1.74269e-08
vernier = 0.0026645
vernier = 0.00355267
Gmin = 1.73093e-08
vernier = 0.00473689
vernier = 0.00236845
Gmin = 1.72072e-08
vernier = 0.00315793
vernier = 0.00421057
vernier = 0.00210528
Gmin = 1.71067e-08
vernier = 0.00280705
Gmin = 1.69991e-08
vernier = 0.00374273
vernier = 0.00187136
vernier = 0.00249515
Gmin = 1.69277e-08
vernier = 0.00332687
vernier = 0.00443582
Gmin = 1.67933e-08
vernier = 0.00221791
vernier = 0.00295721
Gmin = 1.67159e-08
vernier = 0.00394295
vernier = 0.00197147
vernier = 0.00262863
Gmin = 1.66392e-08
vernier = 0.00350484
vernier = 0.00175242
Gmin = 1.65629e-08
vernier = 0.00233656
vernier = 0.00311541
Gmin = 1.64649e-08
vernier = 0.00415388
vernier = 0.00207694
Gmin = 1.63796e-08
vernier = 0.00276926
vernier = 0.00369234
vernier = 0.00184617
Gmin = 1.62958e-08
vernier = 0.00246156
Gmin = 1.62058e-08
vernier = 0.00328208
vernier = 0.0043761
vernier = 0.00218805
Gmin = 1.61086e-08
vernier = 0.0029174
vernier = 0.00388987
Gmin = 1.59964e-08
vernier = 0.00194493
vernier = 0.00259324
Gmin = 1.59318e-08
vernier = 0.00345766
vernier = 0.00172883
vernier = 0.0023051
Gmin = 1.58676e-08
vernier = 0.00307347
Gmin = 1.57614e-08
vernier = 0.00409796
vernier = 0.00204898
vernier = 0.00273197
Gmin = 1.56875e-08
vernier = 0.00364263
vernier = 0.00182132
Gmin = 1.56163e-08
vernier = 0.00242842
vernier = 0.00323789
vernier = 0.00161895
Gmin = 1.55462e-08
vernier = 0.00215859
Gmin = 1.54709e-08
vernier = 0.00287813
vernier = 0.0038375
vernier = 0.00191875
Gmin = 1.53895e-08
vernier = 0.00255833
vernier = 0.00341111
Gmin = 1.52955e-08
vernier = 0.00170555
vernier = 0.00227407
Gmin = 1.52412e-08
vernier = 0.0030321
vernier = 0.00404279
vernier = 0.0020214
Gmin = 1.51548e-08
vernier = 0.00269519
Gmin = 1.50658e-08
vernier = 0.00359359
vernier = 0.0017968
vernier = 0.00239573
Gmin = 1.50039e-08
vernier = 0.0031943
vernier = 0.00159715
Gmin = 1.49441e-08
vernier = 0.00212953
vernier = 0.00283938
Gmin = 1.48589e-08
vernier = 0.00378584
vernier = 0.00189292
Gmin = 1.47922e-08
vernier = 0.00252389
vernier = 0.00336519
vernier = 0.00168259
Gmin = 1.4724e-08
vernier = 0.00224346
vernier = 0.00299128
Gmin = 1.46451e-08
vernier = 0.00149564
vernier = 0.00199418
Gmin = 1.45995e-08
vernier = 0.00265891
vernier = 0.00354521
vernier = 0.00177261
Gmin = 1.45269e-08
vernier = 0.00236347
Gmin = 1.4452e-08
vernier = 0.0031513
vernier = 0.00157565
vernier = 0.00210087
Gmin = 1.44e-08
vernier = 0.00280115
Gmin = 1.43095e-08
vernier = 0.00373487
vernier = 0.00186743
vernier = 0.00248991
Gmin = 1.42495e-08
vernier = 0.00331988
vernier = 0.00165994
Gmin = 1.41935e-08
vernier = 0.00221325
vernier = 0.00295101
vernier = 0.0014755
Gmin = 1.4136e-08
vernier = 0.00196734
vernier = 0.00262311
Gmin = 1.40696e-08
vernier = 0.00349749
vernier = 0.00174874
Gmin = 1.40051e-08
vernier = 0.00233166
vernier = 0.00310887
vernier = 0.00155444
Gmin = 1.39441e-08
vernier = 0.00207258
Gmin = 1.3881e-08
vernier = 0.00276344
vernier = 0.00138172
vernier = 0.00184229
Gmin = 1.38371e-08
vernier = 0.00245639
Gmin = 1.37609e-08
vernier = 0.00327519
vernier = 0.00163759
vernier = 0.00218346
Gmin = 1.37103e-08
vernier = 0.00291128
vernier = 0.00145564
Gmin = 1.3663e-08
vernier = 0.00194085
vernier = 0.0025878
Gmin = 1.35881e-08
vernier = 0.0034504
vernier = 0.0017252
vernier = 0.00230027
Gmin = 1.35335e-08
vernier = 0.00306702
vernier = 0.00153351
Gmin = 1.34791e-08
vernier = 0.00204468
vernier = 0.00272624
vernier = 0.00136312
Gmin = 1.34276e-08
vernier = 0.00181749
Gmin = 1.33743e-08
vernier = 0.00242332
vernier = 0.0032311
vernier = 0.00161555
Gmin = 1.33144e-08
vernier = 0.00215406
Gmin = 1.325e-08
vernier = 0.00287208
vernier = 0.00143604
vernier = 0.00191472
Gmin = 1.32073e-08
vernier = 0.00255296
vernier = 0.00127648
Gmin = 1.31463e-08
vernier = 0.00170197
Gmin = 1.30975e-08
vernier = 0.0022693
vernier = 0.00302573
vernier = 0.00151287
Gmin = 1.30425e-08
vernier = 0.00201715
Gmin = 1.29834e-08
vernier = 0.00268954
vernier = 0.00134477
vernier = 0.00179302
Gmin = 1.29442e-08
vernier = 0.0023907
vernier = 0.0031876
Gmin = 1.28703e-08
vernier = 0.0015938
vernier = 0.00212506
Gmin = 1.28277e-08
vernier = 0.00283342
vernier = 0.00141671
vernier = 0.00188894
Gmin = 1.27853e-08
vernier = 0.00251859
vernier = 0.0012593
Gmin = 1.27432e-08
vernier = 0.00167906
vernier = 0.00223875
Gmin = 1.26889e-08
vernier = 0.002985
vernier = 0.0014925
Gmin = 1.26417e-08
vernier = 0.00199
vernier = 0.00265333
vernier = 0.00132666
Gmin = 1.25951e-08
vernier = 0.00176889
Gmin = 1.25451e-08
vernier = 0.00235851
vernier = 0.00314468
vernier = 0.00157234
Gmin = 1.2491e-08
vernier = 0.00209646
vernier = 0.00279527
Gmin = 1.24284e-08
vernier = 0.00139764
vernier = 0.00186351
Gmin = 1.23923e-08
vernier = 0.00248469
vernier = 0.00124234
vernier = 0.00165646
Gmin = 1.23564e-08
vernier = 0.00220861
Gmin = 1.22969e-08
vernier = 0.00294481
vernier = 0.00147241
vernier = 0.00196321
Gmin = 1.22555e-08
vernier = 0.00261761
vernier = 0.0013088
Gmin = 1.22154e-08
vernier = 0.00174507
vernier = 0.00232676
Gmin = 1.21583e-08
vernier = 0.00116338
vernier = 0.00155117
Gmin = 1.21265e-08
vernier = 0.00206823
vernier = 0.00275764
Gmin = 1.20666e-08
vernier = 0.00137882
vernier = 0.00183843
Gmin = 1.2032e-08
vernier = 0.00245124
vernier = 0.00122562
vernier = 0.00163416
Gmin = 1.19976e-08
vernier = 0.00217887
Gmin = 1.19406e-08
vernier = 0.00290517
vernier = 0.00145258
vernier = 0.00193678
Gmin = 1.19009e-08
vernier = 0.00258237
vernier = 0.00129118
Gmin = 1.18626e-08
vernier = 0.00172158
vernier = 0.00229544
vernier = 0.00114772
Gmin = 1.18248e-08
vernier = 0.00153029
Gmin = 1.17841e-08
vernier = 0.00204039
vernier = 0.00272052
vernier = 0.00136026
Gmin = 1.17402e-08
vernier = 0.00181368
vernier = 0.00241824
Gmin = 1.16893e-08
vernier = 0.00120912
vernier = 0.00161216
Gmin = 1.16599e-08
vernier = 0.00214954
vernier = 0.00286605
vernier = 0.00143303
Gmin = 1.1613e-08
vernier = 0.0019107
Gmin = 1.15645e-08
vernier = 0.0025476
vernier = 0.0012738
vernier = 0.0016984
Gmin = 1.15308e-08
vernier = 0.00226453
vernier = 0.00113227
Gmin = 1.14983e-08
vernier = 0.00150969
vernier = 0.00201292
Gmin = 1.14517e-08
vernier = 0.00268389
vernier = 0.00134195
vernier = 0.000670973
Gmin = 1.14268e-08
vernier = 0.00089463
vernier = 0.00119284
Gmin = 1.13993e-08
vernier = 0.00159045
vernier = 0.0021206
Gmin = 1.1356e-08
vernier = 0.00282747
vernier = 0.00141374
Gmin = 1.13139e-08
vernier = 0.00188498
vernier = 0.00251331
vernier = 0.00125665
Gmin = 1.1274e-08
vernier = 0.00167554
Gmin = 1.12328e-08
vernier = 0.00223405
vernier = 0.00111702
vernier = 0.00148937
Gmin = 1.12041e-08
vernier = 0.00198582
Gmin = 1.11541e-08
vernier = 0.00264776
vernier = 0.00132388
vernier = 0.00176517
Gmin = 1.1121e-08
vernier = 0.00235356
vernier = 0.00117678
Gmin = 1.10899e-08
vernier = 0.00156904
vernier = 0.00209205
vernier = 0.00104603
Gmin = 1.10581e-08
vernier = 0.0013947
vernier = 0.0018596
Gmin = 1.10212e-08
vernier = 0.00247947
vernier = 0.00123974
Gmin = 1.09854e-08
vernier = 0.00165298
vernier = 0.00220397
vernier = 0.00110199
Gmin = 1.09514e-08
vernier = 0.00146931
Gmin = 1.09163e-08
vernier = 0.00195909
vernier = 0.00261211
vernier = 0.00130606
Gmin = 1.08767e-08
vernier = 0.00174141
Gmin = 1.08342e-08
vernier = 0.00232188
vernier = 0.00116094
vernier = 0.00154792
Gmin = 1.08059e-08
vernier = 0.00206389
vernier = 0.00103194
Gmin = 1.07795e-08
vernier = 0.00137593
vernier = 0.00183457
Gmin = 1.07375e-08
vernier = 0.00244609
vernier = 0.00122304
vernier = 0.00163073
Gmin = 1.07069e-08
vernier = 0.0021743
vernier = 0.00108715
Gmin = 1.06764e-08
vernier = 0.00144953
vernier = 0.00193271
Gmin = 1.06372e-08
vernier = 0.00257695
vernier = 0.00128847
Gmin = 1.0603e-08
vernier = 0.00171796
vernier = 0.00229062
vernier = 0.00114531
Gmin = 1.05693e-08
vernier = 0.00152708
Gmin = 1.0533e-08
vernier = 0.0020361
vernier = 0.00101805
vernier = 0.0013574
Gmin = 1.05089e-08
vernier = 0.00180987
vernier = 0.00241316
Gmin = 1.04635e-08
vernier = 0.00120658
vernier = 0.00060329
vernier = 0.000804386
Gmin = 1.04556e-08
vernier = 0.00107251
vernier = 0.00143002
Gmin = 1.04288e-08
vernier = 0.00190669
Gmin = 1.03854e-08
vernier = 0.00254226
vernier = 0.00127113
vernier = 0.00169484
Gmin = 1.03552e-08
vernier = 0.00225978
vernier = 0.00112989
Gmin = 1.03259e-08
vernier = 0.00150652
vernier = 0.00200869
vernier = 0.00100435
Gmin = 1.02971e-08
vernier = 0.00133913
Gmin = 1.02662e-08
vernier = 0.0017855
vernier = 0.00238067
vernier = 0.00119034
Gmin = 1.02326e-08
vernier = 0.00158711
vernier = 0.00211615
Gmin = 1.01938e-08
vernier = 0.00105808
vernier = 0.00141077
Gmin = 1.01714e-08
vernier = 0.00188102
vernier = 0.00250803
vernier = 0.00125401
Gmin = 1.01356e-08
vernier = 0.00167202
Gmin = 1.00986e-08
vernier = 0.00222936
vernier = 0.00111468
vernier = 0.00148624
Gmin = 1.00728e-08
vernier = 0.00198165
vernier = 0.000990826
Gmin = 1.00479e-08
vernier = 0.0013211
vernier = 0.00176147
Gmin = 1.00123e-08
vernier = 0.00234862
vernier = 0.00117431
Gmin = 9.9844e-09
vernier = 0.00156575
vernier = 0.00208766
vernier = 0.00104383
Gmin = 9.95579e-09
vernier = 0.00139177
vernier = 0.0018557
Gmin = 9.92265e-09
vernier = 0.00092785
vernier = 0.00123713
Gmin = 9.90349e-09
vernier = 0.00164951
vernier = 0.00219935
vernier = 0.00109967
Gmin = 9.87292e-09
vernier = 0.00146623
Gmin = 9.8413e-09
vernier = 0.00195497
vernier = 0.000977487
vernier = 0.00130332
Gmin = 9.81929e-09
vernier = 0.00173775
Gmin = 9.78098e-09
vernier = 0.002317
vernier = 0.0011585
vernier = 0.00154467
Gmin = 9.75552e-09
vernier = 0.00205956
vernier = 0.00102978
Gmin = 9.73169e-09
vernier = 0.00137304
vernier = 0.00183072
vernier = 0.000915358
Gmin = 9.70723e-09
vernier = 0.00122048
vernier = 0.0016273
Gmin = 9.67889e-09
vernier = 0.00216974
vernier = 0.00108487
Gmin = 9.65137e-09
vernier = 0.00144649
vernier = 0.00192865
vernier = 0.000964327
Gmin = 9.62524e-09
vernier = 0.00128577
Gmin = 9.59821e-09
vernier = 0.00171436
vernier = 0.00228581
vernier = 0.00114291
Gmin = 9.56775e-09
vernier = 0.00152387
Gmin = 9.53501e-09
vernier = 0.00203183
vernier = 0.00101592
vernier = 0.00135455
Gmin = 9.51324e-09
vernier = 0.00180607
vernier = 0.000903035
Gmin = 9.49286e-09
vernier = 0.00120405
vernier = 0.0016054
Gmin = 9.46054e-09
vernier = 0.00214053
vernier = 0.00107026
vernier = 0.00142702
Gmin = 9.43695e-09
vernier = 0.00190269
vernier = 0.000951345
Gmin = 9.41341e-09
vernier = 0.00126846
vernier = 0.00169128
Gmin = 9.38312e-09
vernier = 0.00225504
vernier = 0.00112752
Gmin = 9.35671e-09
vernier = 0.00150336
vernier = 0.00200448
vernier = 0.00100224
Gmin = 9.33067e-09
vernier = 0.00133632
Gmin = 9.30266e-09
vernier = 0.00178176
vernier = 0.000890878
vernier = 0.00118784
Gmin = 9.28404e-09
vernier = 0.00158378
vernier = 0.00211171
Gmin = 9.24888e-09
vernier = 0.00105585
vernier = 0.00140781
Gmin = 9.22856e-09
vernier = 0.00187707
vernier = 0.000938537
vernier = 0.00125138
Gmin = 9.20838e-09
vernier = 0.00166851
Gmin = 9.17483e-09
vernier = 0.00222468
vernier = 0.00111234
vernier = 0.00148312
Gmin = 9.15148e-09
vernier = 0.00197749
vernier = 0.000988746
Gmin = 9.12889e-09
vernier = 0.00131833
vernier = 0.00175777
vernier = 0.000878885
Gmin = 9.10661e-09
vernier = 0.00117185
Gmin = 9.08263e-09
vernier = 0.00156246
vernier = 0.00208328
vernier = 0.00104164
Gmin = 9.05666e-09
vernier = 0.00138885
vernier = 0.0018518
Gmin = 9.02658e-09
vernier = 0.000925902
vernier = 0.00123454
Gmin = 9.00918e-09
vernier = 0.00164605
vernier = 0.00219473
vernier = 0.00109736
Gmin = 8.98142e-09
vernier = 0.00146315
Gmin = 8.95273e-09
vernier = 0.00195087
vernier = 0.000975435
vernier = 0.00130058
Gmin = 8.93274e-09
vernier = 0.00173411
vernier = 0.000867053
Gmin = 8.9134e-09
vernier = 0.00115607
vernier = 0.00154143
Gmin = 8.88576e-09
vernier = 0.00205523
vernier = 0.00102762
Gmin = 8.8641e-09
vernier = 0.00137016
vernier = 0.00182687
vernier = 0.000913437
Gmin = 8.84187e-09
vernier = 0.00121792
vernier = 0.00162389
Gmin = 8.81611e-09
vernier = 0.000811944
vernier = 0.00108259
Gmin = 8.80121e-09
vernier = 0.00144345
vernier = 0.00192461
vernier = 0.000962303
Gmin = 8.77742e-09
vernier = 0.00128307
Gmin = 8.75283e-09
vernier = 0.00171076
vernier = 0.00085538
vernier = 0.00114051
Gmin = 8.73569e-09
vernier = 0.00152067
Gmin = 8.70585e-09
vernier = 0.00202757
vernier = 0.00101378
vernier = 0.00135171
Gmin = 8.68602e-09
vernier = 0.00180228
vernier = 0.00090114
Gmin = 8.66745e-09
vernier = 0.00120152
vernier = 0.00160203
vernier = 0.000801013
Gmin = 8.64839e-09
vernier = 0.00106802
vernier = 0.00142402
Gmin = 8.62629e-09
vernier = 0.0018987
vernier = 0.000949348
Gmin = 8.60482e-09
vernier = 0.0012658
vernier = 0.00168773
vernier = 0.000843864
Gmin = 8.58443e-09
vernier = 0.00112515
Gmin = 8.56333e-09
vernier = 0.0015002
vernier = 0.00200027
vernier = 0.00100013
Gmin = 8.53954e-09
vernier = 0.00133351
Gmin = 8.51396e-09
vernier = 0.00177802
vernier = 0.000889008
vernier = 0.00118534
Gmin = 8.49695e-09
vernier = 0.00158046
vernier = 0.000790229
Gmin = 8.48102e-09
vernier = 0.00105364
vernier = 0.00140485
Gmin = 8.45575e-09
vernier = 0.00187313
vernier = 0.000936567
vernier = 0.00124876
Gmin = 8.43729e-09
vernier = 0.00166501
vernier = 0.000832504
Gmin = 8.41887e-09
vernier = 0.00111
vernier = 0.00148001
Gmin = 8.39516e-09
vernier = 0.00197334
vernier = 0.00098667
Gmin = 8.37448e-09
vernier = 0.00131556
vernier = 0.00175408
vernier = 0.00087704
Gmin = 8.35408e-09
vernier = 0.00116939
Gmin = 8.33213e-09
vernier = 0.00155918
vernier = 0.00077959
vernier = 0.00103945
Gmin = 8.31753e-09
vernier = 0.00138594
vernier = 0.00184792
Gmin = 8.28996e-09
vernier = 0.000923958
vernier = 0.00123194
Gmin = 8.27402e-09
vernier = 0.00164259
vernier = 0.000821296
vernier = 0.00109506
Gmin = 8.25818e-09
vernier = 0.00146008
Gmin = 8.23185e-09
vernier = 0.00194677
vernier = 0.000973387
vernier = 0.00129785
Gmin = 8.21351e-09
vernier = 0.00173046
vernier = 0.000865232
Gmin = 8.19577e-09
vernier = 0.00115364
vernier = 0.00153819
vernier = 0.000769095
Gmin = 8.17826e-09
vernier = 0.00102546
Gmin = 8.15941e-09
vernier = 0.00136728
vernier = 0.00182304
vernier = 0.000911519
Gmin = 8.13899e-09
vernier = 0.00121536
vernier = 0.00162048
Gmin = 8.11533e-09
vernier = 0.000810239
vernier = 0.00108032
Gmin = 8.10164e-09
vernier = 0.00144042
vernier = 0.00192057
vernier = 0.000960283
Gmin = 8.0798e-09
vernier = 0.00128038
Gmin = 8.0572e-09
vernier = 0.00170717
vernier = 0.000853584
vernier = 0.00113811
Gmin = 8.04146e-09
vernier = 0.00151748
vernier = 0.000758741
Gmin = 8.02622e-09
vernier = 0.00101165
vernier = 0.00134887
Gmin = 8.00443e-09
vernier = 0.0017985
vernier = 0.000899248
Gmin = 7.98736e-09
vernier = 0.001199
vernier = 0.00159866
vernier = 0.000799331
Gmin = 7.96982e-09
vernier = 0.00106577
vernier = 0.00142103
Gmin = 7.9495e-09
vernier = 0.00189471
vernier = 0.000947355
Gmin = 7.92976e-09
vernier = 0.00126314
vernier = 0.00168419
vernier = 0.000842093
Gmin = 7.911e-09
vernier = 0.00112279
Gmin = 7.8916e-09
vernier = 0.00149705
vernier = 0.000748526
vernier = 0.000998035
Gmin = 7.87807e-09
vernier = 0.00133071
Gmin = 7.85452e-09
vernier = 0.00177428
vernier = 0.000887142
vernier = 0.00118286
Gmin = 7.83886e-09
vernier = 0.00157714
vernier = 0.00078857
Gmin = 7.8242e-09
vernier = 0.00105143
vernier = 0.0014019
Gmin = 7.80093e-09
vernier = 0.0018692
vernier = 0.000934601
vernier = 0.00124613
Gmin = 7.78394e-09
vernier = 0.00166151
vernier = 0.000830756
Gmin = 7.76698e-09
vernier = 0.00110767
vernier = 0.0014769
vernier = 0.000738449
Gmin = 7.75087e-09
vernier = 0.000984599
Gmin = 7.7342e-09
vernier = 0.0013128
vernier = 0.0017504
vernier = 0.000875199
Gmin = 7.7154e-09
vernier = 0.00116693
Gmin = 7.69517e-09
vernier = 0.00155591
vernier = 0.000777954
vernier = 0.00103727
Gmin = 7.68171e-09
vernier = 0.00138303
vernier = 0.00184404
Gmin = 7.65631e-09
vernier = 0.000922019
vernier = 0.00122936
Gmin = 7.64161e-09
vernier = 0.00163914
vernier = 0.000819572
vernier = 0.00109276
Gmin = 7.62702e-09
vernier = 0.00145702
vernier = 0.000728508
Gmin = 7.61245e-09
vernier = 0.000971344
vernier = 0.00129512
Gmin = 7.59368e-09
vernier = 0.00172683
vernier = 0.000863416
Gmin = 7.57731e-09
vernier = 0.00115122
vernier = 0.00153496
vernier = 0.000767481
Gmin = 7.56115e-09
vernier = 0.00102331
Gmin = 7.54377e-09
vernier = 0.00136441
vernier = 0.000682205
Gmin = 7.52963e-09
vernier = 0.000909606
vernier = 0.00121281
Gmin = 7.51025e-09
vernier = 0.00161708
vernier = 0.000808538
vernier = 0.00107805
Gmin = 7.4961e-09
vernier = 0.0014374
vernier = 0.0007187
Gmin = 7.48197e-09
vernier = 0.000958267
vernier = 0.00127769
Gmin = 7.46377e-09
vernier = 0.00170358
vernier = 0.000851792
Gmin = 7.4479e-09
vernier = 0.00113572
vernier = 0.0015143
vernier = 0.000757148
Gmin = 7.43223e-09
vernier = 0.00100953
Gmin = 7.41537e-09
vernier = 0.00134604
vernier = 0.00067302
vernier = 0.00089736
Gmin = 7.40415e-09
vernier = 0.00119648
vernier = 0.00159531
Gmin = 7.38296e-09
vernier = 0.000797653
vernier = 0.00106354
Gmin = 7.3707e-09
vernier = 0.00141805
vernier = 0.000709025
vernier = 0.000945366
Gmin = 7.35852e-09
vernier = 0.00126049
Gmin = 7.33826e-09
vernier = 0.00168065
vernier = 0.000840325
vernier = 0.00112043
Gmin = 7.32414e-09
vernier = 0.00149391
vernier = 0.000746955
Gmin = 7.31048e-09
vernier = 0.00099594
vernier = 0.00132792
vernier = 0.00066396
Gmin = 7.297e-09
vernier = 0.00088528
Gmin = 7.28248e-09
vernier = 0.00118037
vernier = 0.00157383
vernier = 0.000786915
Gmin = 7.26674e-09
vernier = 0.00104922
vernier = 0.00139896
Gmin = 7.2485e-09
vernier = 0.000699479
vernier = 0.000932639
Gmin = 7.23794e-09
vernier = 0.00124352
vernier = 0.00165802
vernier = 0.000829012
Gmin = 7.22109e-09
vernier = 0.00110535
Gmin = 7.20365e-09
vernier = 0.0014738
vernier = 0.000736899
vernier = 0.000982532
Gmin = 7.1915e-09
vernier = 0.00131004
vernier = 0.000655021
Gmin = 7.17973e-09
vernier = 0.000873361
vernier = 0.00116448
Gmin = 7.1629e-09
vernier = 0.00155264
vernier = 0.000776321
Gmin = 7.14971e-09
vernier = 0.00103509
vernier = 0.00138013
vernier = 0.000690063
Gmin = 7.13616e-09
vernier = 0.000920083
vernier = 0.00122678
Gmin = 7.12044e-09
vernier = 0.0016357
vernier = 0.000817851
Gmin = 7.10518e-09
vernier = 0.00109047
vernier = 0.00145396
vernier = 0.000726979
Gmin = 7.09066e-09
vernier = 0.000969305
Gmin = 7.07565e-09
vernier = 0.00129241
vernier = 0.000646203
vernier = 0.000861604
Gmin = 7.06518e-09
vernier = 0.0011488
Gmin = 7.04694e-09
vernier = 0.00153174
vernier = 0.00076587
vernier = 0.00102116
Gmin = 7.03481e-09
vernier = 0.00136155
vernier = 0.000680773
Gmin = 7.02345e-09
vernier = 0.000907697
vernier = 0.00121026
Gmin = 7.00541e-09
vernier = 0.00161368
vernier = 0.000806841
vernier = 0.00107579
Gmin = 6.99223e-09
vernier = 0.00143438
vernier = 0.000717192
Gmin = 6.97908e-09
vernier = 0.000956255
vernier = 0.00127501
vernier = 0.000637503
Gmin = 6.96658e-09
vernier = 0.000850004
Gmin = 6.95364e-09
vernier = 0.00113334
vernier = 0.00151112
vernier = 0.000755559
Gmin = 6.93905e-09
vernier = 0.00100741
Gmin = 6.92334e-09
vernier = 0.00134322
vernier = 0.000671608
vernier = 0.000895477
Gmin = 6.91289e-09
vernier = 0.00119397
vernier = 0.00159196
Gmin = 6.89314e-09
vernier = 0.000795979
vernier = 0.0010613
Gmin = 6.88172e-09
vernier = 0.00141507
vernier = 0.000707536
vernier = 0.000943382
Gmin = 6.87037e-09
vernier = 0.00125784
vernier = 0.000628921
Gmin = 6.85904e-09
vernier = 0.000838561
vernier = 0.00111808
Gmin = 6.84444e-09
vernier = 0.00149077
vernier = 0.000745387
Gmin = 6.8317e-09
vernier = 0.000993849
vernier = 0.00132513
vernier = 0.000662566
Gmin = 6.81912e-09
vernier = 0.000883421
Gmin = 6.80558e-09
vernier = 0.00117789
vernier = 0.00157053
vernier = 0.000785263
Gmin = 6.7909e-09
vernier = 0.00104702
vernier = 0.00139602
Gmin = 6.77389e-09
vernier = 0.000698011
vernier = 0.000930681
Gmin = 6.76405e-09
vernier = 0.00124091
vernier = 0.000620454
vernier = 0.000827272
Gmin = 6.75427e-09
vernier = 0.00110303
Gmin = 6.73799e-09
vernier = 0.0014707
vernier = 0.000735352
vernier = 0.00098047
Gmin = 6.72665e-09
vernier = 0.00130729
vernier = 0.000653646
Gmin = 6.71566e-09
vernier = 0.000871528
vernier = 0.00116204
Gmin = 6.69995e-09
vernier = 0.00154938
vernier = 0.000774691
vernier = 0.000581018
Gmin = 6.69023e-09
vernier = 0.000774691
vernier = 0.00103292
Gmin = 6.67632e-09
vernier = 0.00137723
vernier = 0.000688614
Gmin = 6.66541e-09
vernier = 0.000918152
vernier = 0.0012242
vernier = 0.000612101
Gmin = 6.6542e-09
vernier = 0.000816134
vernier = 0.00108818
Gmin = 6.6412e-09
vernier = 0.0014509
vernier = 0.000725452
Gmin = 6.62857e-09
vernier = 0.00096727
vernier = 0.00128969
vernier = 0.000644846
Gmin = 6.61656e-09
vernier = 0.000859795
Gmin = 6.60413e-09
vernier = 0.00114639
vernier = 0.00152852
vernier = 0.000764262
Gmin = 6.59011e-09
vernier = 0.00101902
Gmin = 6.57502e-09
vernier = 0.00135869
vernier = 0.000679343
vernier = 0.000905791
Gmin = 6.56498e-09
vernier = 0.00120772
vernier = 0.00060386
Gmin = 6.55557e-09
vernier = 0.000805147
vernier = 0.00107353
Gmin = 6.54063e-09
vernier = 0.00143137
vernier = 0.000715686
vernier = 0.000954248
Gmin = 6.52972e-09
vernier = 0.00127233
vernier = 0.000636165
Gmin = 6.51883e-09
vernier = 0.00084822
vernier = 0.00113096
Gmin = 6.50479e-09
vernier = 0.00150795
vernier = 0.000753973
Gmin = 6.49254e-09
vernier = 0.0010053
vernier = 0.0013404
vernier = 0.000670198
Gmin = 6.48045e-09
vernier = 0.000893597
Gmin = 6.46744e-09
vernier = 0.00119146
vernier = 0.000595731
vernier = 0.000794308
Gmin = 6.45877e-09
vernier = 0.00105908
vernier = 0.0014121
Gmin = 6.44241e-09
vernier = 0.000706051
vernier = 0.000941401
Gmin = 6.43294e-09
vernier = 0.0012552
vernier = 0.000627601
vernier = 0.000836801
Gmin = 6.42353e-09
vernier = 0.00111573
Gmin = 6.40787e-09
vernier = 0.00148764
vernier = 0.000743822
vernier = 0.000991763
Gmin = 6.39696e-09
vernier = 0.00132235
vernier = 0.000661175
Gmin = 6.38639e-09
vernier = 0.000881567
vernier = 0.00117542
vernier = 0.000587711
Gmin = 6.37596e-09
vernier = 0.000783614
Gmin = 6.36473e-09
vernier = 0.00104482
vernier = 0.00139309
vernier = 0.000696546
Gmin = 6.35256e-09
vernier = 0.000928727
vernier = 0.0012383
Gmin = 6.33844e-09
vernier = 0.000619151
vernier = 0.000825535
Gmin = 6.33027e-09
vernier = 0.00110071
vernier = 0.00146762
vernier = 0.000733809
Gmin = 6.31722e-09
vernier = 0.000978411
Gmin = 6.30371e-09
vernier = 0.00130455
vernier = 0.000652274
vernier = 0.000869698
Gmin = 6.2943e-09
vernier = 0.0011596
vernier = 0.000579799
Gmin = 6.28518e-09
vernier = 0.000773065
vernier = 0.00103075
Gmin = 6.27214e-09
vernier = 0.00137434
vernier = 0.000687168
Gmin = 6.26191e-09
vernier = 0.000916224
vernier = 0.00122163
vernier = 0.000610816
Gmin = 6.2514e-09
vernier = 0.000814421
vernier = 0.00108589
Gmin = 6.23922e-09
vernier = 0.00144786
vernier = 0.00072393
Gmin = 6.22738e-09
vernier = 0.000965239
vernier = 0.00128699
vernier = 0.000643493
Gmin = 6.21612e-09
vernier = 0.00085799
Gmin = 6.20446e-09
vernier = 0.00114399
vernier = 0.000571993
vernier = 0.000762657
Gmin = 6.19634e-09
vernier = 0.00101688
Gmin = 6.18218e-09
vernier = 0.00135583
vernier = 0.000677917
vernier = 0.00090389
Gmin = 6.17275e-09
vernier = 0.00120519
vernier = 0.000602593
Gmin = 6.16393e-09
vernier = 0.000803457
vernier = 0.00107128
Gmin = 6.14991e-09
vernier = 0.00142837
vernier = 0.000714184
vernier = 0.000952245
Gmin = 6.13967e-09
vernier = 0.00126966
vernier = 0.00063483
Gmin = 6.12945e-09
vernier = 0.000846439
vernier = 0.00112859
vernier = 0.000564293
Gmin = 6.11973e-09
vernier = 0.00075239
Gmin = 6.10967e-09
vernier = 0.00100319
vernier = 0.00133758
vernier = 0.000668791
Gmin = 6.09832e-09
vernier = 0.000891721
Gmin = 6.0861e-09
vernier = 0.00118896
vernier = 0.00059448
vernier = 0.00079264
Gmin = 6.07796e-09
vernier = 0.00105685
vernier = 0.00140914
Gmin = 6.06259e-09
vernier = 0.000704569
vernier = 0.000939425
Gmin = 6.0537e-09
vernier = 0.00125257
vernier = 0.000626283
vernier = 0.000835044
Gmin = 6.04486e-09
vernier = 0.00111339
vernier = 0.000556696
Gmin = 6.03604e-09
vernier = 0.000742261
vernier = 0.000989681
Gmin = 6.02466e-09
vernier = 0.00131957
vernier = 0.000659787
Gmin = 6.01473e-09
vernier = 0.000879716
vernier = 0.00117295
vernier = 0.000586477
Gmin = 6.00493e-09
vernier = 0.000781969
Gmin = 5.99438e-09
vernier = 0.00104263
vernier = 0.00139017
vernier = 0.000695084
Gmin = 5.98293e-09
vernier = 0.000926778
vernier = 0.0012357
Gmin = 5.96966e-09
vernier = 0.000617852
vernier = 0.000823802
Gmin = 5.96198e-09
vernier = 0.0010984
vernier = 0.000549201
vernier = 0.000732268
Gmin = 5.95435e-09
vernier = 0.000976357
Gmin = 5.94165e-09
vernier = 0.00130181
vernier = 0.000650905
vernier = 0.000867873
Gmin = 5.93279e-09
vernier = 0.00115716
vernier = 0.000578582
Gmin = 5.92422e-09
vernier = 0.000771442
vernier = 0.00102859
Gmin = 5.91195e-09
vernier = 0.00137145
vernier = 0.000685726
Gmin = 5.90233e-09
vernier = 0.000914301
vernier = 0.00121907
vernier = 0.000609534
Gmin = 5.89244e-09
vernier = 0.000812712
vernier = 0.00108362
Gmin = 5.88098e-09
vernier = 0.000541808
vernier = 0.00072241
Gmin = 5.87435e-09
vernier = 0.000963213
vernier = 0.00128428
vernier = 0.000642142
Gmin = 5.86375e-09
vernier = 0.000856189
Gmin = 5.85278e-09
vernier = 0.00114158
vernier = 0.000570792
vernier = 0.000761056
Gmin = 5.84513e-09
vernier = 0.00101474
Gmin = 5.8318e-09
vernier = 0.00135299
vernier = 0.000676494
vernier = 0.000901992
Gmin = 5.82293e-09
vernier = 0.00120266
vernier = 0.000601328
Gmin = 5.81462e-09
vernier = 0.00080177
vernier = 0.00106903
vernier = 0.000534513
Gmin = 5.80608e-09
vernier = 0.000712684
vernier = 0.000950246
Gmin = 5.79618e-09
vernier = 0.00126699
vernier = 0.000633497
Gmin = 5.78655e-09
vernier = 0.000844662
vernier = 0.00112622
vernier = 0.000563108
Gmin = 5.77739e-09
vernier = 0.000750811
Gmin = 5.76791e-09
vernier = 0.00100108
vernier = 0.00133477
vernier = 0.000667387
Gmin = 5.75722e-09
vernier = 0.000889849
Gmin = 5.7457e-09
vernier = 0.00118646
vernier = 0.000593232
vernier = 0.000790976
Gmin = 5.73804e-09
vernier = 0.00105464
vernier = 0.000527318
Gmin = 5.73086e-09
vernier = 0.00070309
vernier = 0.000937453
Gmin = 5.71945e-09
vernier = 0.00124994
vernier = 0.000624968
vernier = 0.000833291
Gmin = 5.71112e-09
vernier = 0.00111105
vernier = 0.000555527
Gmin = 5.7028e-09
vernier = 0.000740703
vernier = 0.000987603
Gmin = 5.69207e-09
vernier = 0.0013168
vernier = 0.000658402
Gmin = 5.68271e-09
vernier = 0.000877869
vernier = 0.00117049
vernier = 0.000585246
Gmin = 5.67347e-09
vernier = 0.000780328
Gmin = 5.66352e-09
vernier = 0.00104044
vernier = 0.000520218
vernier = 0.000693624
Gmin = 5.6569e-09
vernier = 0.000924832
vernier = 0.00123311
Gmin = 5.64438e-09
vernier = 0.000616555
vernier = 0.000822073
Gmin = 5.63713e-09
vernier = 0.0010961
vernier = 0.000548048
vernier = 0.000730731
Gmin = 5.62993e-09
vernier = 0.000974308
Gmin = 5.61794e-09
vernier = 0.00129908
vernier = 0.000649538
vernier = 0.000866051
Gmin = 5.60959e-09
vernier = 0.00115473
vernier = 0.000577367
Gmin = 5.6015e-09
vernier = 0.000769823
vernier = 0.00102643
vernier = 0.000513215
Gmin = 5.59351e-09
vernier = 0.000684286
Gmin = 5.5849e-09
vernier = 0.000912382
vernier = 0.00121651
vernier = 0.000608254
Gmin = 5.57557e-09
vernier = 0.000811006
vernier = 0.00108134
Gmin = 5.56475e-09
vernier = 0.00054067
vernier = 0.000720893
Gmin = 5.55849e-09
vernier = 0.000961191
vernier = 0.00128159
vernier = 0.000640794
Gmin = 5.54848e-09
vernier = 0.000854392
Gmin = 5.53812e-09
vernier = 0.00113919
vernier = 0.000569594
vernier = 0.000759459
Gmin = 5.53089e-09
vernier = 0.00101261
vernier = 0.000506306
Gmin = 5.5239e-09
vernier = 0.000675074
vernier = 0.000900099
Gmin = 5.51389e-09
vernier = 0.00120013
vernier = 0.000600066
Gmin = 5.50604e-09
vernier = 0.000800087
vernier = 0.00106678
vernier = 0.000533391
Gmin = 5.49797e-09
vernier = 0.000711188
vernier = 0.000948251
Gmin = 5.48861e-09
vernier = 0.00126433
vernier = 0.000632167
Gmin = 5.47951e-09
vernier = 0.000842889
vernier = 0.00112385
vernier = 0.000561926
Gmin = 5.47085e-09
vernier = 0.000749235
Gmin = 5.4619e-09
vernier = 0.000998979
vernier = 0.00049949
vernier = 0.000665986
Gmin = 5.45565e-09
vernier = 0.000887981
Gmin = 5.44476e-09
vernier = 0.00118397
vernier = 0.000591987
vernier = 0.000789316
Gmin = 5.43751e-09
vernier = 0.00105242
vernier = 0.000526211
Gmin = 5.43072e-09
vernier = 0.000701614
vernier = 0.000935485
Gmin = 5.41994e-09
vernier = 0.00124731
vernier = 0.000623657
vernier = 0.000831542
Gmin = 5.41206e-09
vernier = 0.00110872
vernier = 0.000554361
Gmin = 5.40419e-09
vernier = 0.000739148
vernier = 0.00098553
vernier = 0.000492765
Gmin = 5.3967e-09
vernier = 0.00065702
Gmin = 5.38895e-09
vernier = 0.000876026
vernier = 0.00116804
vernier = 0.000584018
Gmin = 5.38021e-09
vernier = 0.00077869
Gmin = 5.37079e-09
vernier = 0.00103825
vernier = 0.000519126
vernier = 0.000692168
Gmin = 5.36452e-09
vernier = 0.000922891
vernier = 0.00123052
Gmin = 5.35268e-09
vernier = 0.00061526
vernier = 0.000820347
Gmin = 5.34582e-09
vernier = 0.0010938
vernier = 0.000546898
vernier = 0.000729197
Gmin = 5.339e-09
vernier = 0.000972263
vernier = 0.000486131
Gmin = 5.33219e-09
vernier = 0.000648175
vernier = 0.000864233
Gmin = 5.32342e-09
vernier = 0.00115231
vernier = 0.000576155
Gmin = 5.31576e-09
vernier = 0.000768207
vernier = 0.00102428
vernier = 0.000512138
Gmin = 5.30819e-09
vernier = 0.00068285
Gmin = 5.30004e-09
vernier = 0.000910466
vernier = 0.00121395
vernier = 0.000606977
Gmin = 5.2912e-09
vernier = 0.000809303
vernier = 0.00107907
Gmin = 5.28096e-09
vernier = 0.000539535
vernier = 0.00071938
Gmin = 5.27502e-09
vernier = 0.000959173
vernier = 0.000479587
vernier = 0.000639449
Gmin = 5.26912e-09
vernier = 0.000852598
Gmin = 5.25931e-09
vernier = 0.0011368
vernier = 0.000568399
vernier = 0.000757865
Gmin = 5.25246e-09
vernier = 0.00101049
vernier = 0.000505243
Gmin = 5.24583e-09
vernier = 0.000673657
vernier = 0.000898209
Gmin = 5.23634e-09
vernier = 0.00119761
vernier = 0.000598806
Gmin = 5.2289e-09
vernier = 0.000798408
vernier = 0.00106454
vernier = 0.000532272
Gmin = 5.22126e-09
vernier = 0.000709695
vernier = 0.00094626
Gmin = 5.21239e-09
vernier = 0.00047313
vernier = 0.00063084
Gmin = 5.20725e-09
vernier = 0.00084112
vernier = 0.00112149
vernier = 0.000560746
Gmin = 5.19905e-09
vernier = 0.000747662
Gmin = 5.19055e-09
vernier = 0.000996882
vernier = 0.000498441
vernier = 0.000664588
Gmin = 5.18463e-09
vernier = 0.000886117
Gmin = 5.1743e-09
vernier = 0.00118149
vernier = 0.000590745
vernier = 0.000787659
Gmin = 5.16743e-09
vernier = 0.00105021
vernier = 0.000525106
Gmin = 5.16099e-09
vernier = 0.000700141
vernier = 0.000933521
vernier = 0.000466761
Gmin = 5.15437e-09
vernier = 0.000622347
vernier = 0.000829796
Gmin = 5.14669e-09
vernier = 0.00110639
vernier = 0.000553197
Gmin = 5.13922e-09
vernier = 0.000737596
vernier = 0.000983461
vernier = 0.000491731
Gmin = 5.13212e-09
vernier = 0.000655641
Gmin = 5.12476e-09
vernier = 0.000874188
vernier = 0.00116558
vernier = 0.000582792
Gmin = 5.11647e-09
vernier = 0.000777055
Gmin = 5.10753e-09
vernier = 0.00103607
vernier = 0.000518037
vernier = 0.000690715
Gmin = 5.10158e-09
vernier = 0.000920954
vernier = 0.000460477
Gmin = 5.096e-09
vernier = 0.000613969
vernier = 0.000818625
Gmin = 5.08715e-09
vernier = 0.0010915
vernier = 0.00054575
vernier = 0.000727666
Gmin = 5.08067e-09
vernier = 0.000970222
vernier = 0.000485111
Gmin = 5.07421e-09
vernier = 0.000646814
vernier = 0.000862419
Gmin = 5.06587e-09
vernier = 0.00114989
vernier = 0.000574946
Gmin = 5.0586e-09
vernier = 0.000766594
vernier = 0.00102213
vernier = 0.000511063
Gmin = 5.05141e-09
vernier = 0.000681417
Gmin = 5.04368e-09
vernier = 0.000908555
vernier = 0.000454278
vernier = 0.000605703
Gmin = 5.03852e-09
vernier = 0.000807604
vernier = 0.00107681
Gmin = 5.02878e-09
vernier = 0.000538403
vernier = 0.00071787
Gmin = 5.02315e-09
vernier = 0.00095716
vernier = 0.00047858
vernier = 0.000638106
Gmin = 5.01754e-09
vernier = 0.000850808
Gmin = 5.00821e-09
vernier = 0.00113441
vernier = 0.000567205
vernier = 0.000756274
Gmin = 5.00171e-09
vernier = 0.00100836
vernier = 0.000504182
Gmin = 4.99541e-09
vernier = 0.000672243
vernier = 0.000896324
vernier = 0.000448162
Gmin = 4.98919e-09
vernier = 0.000597549
Gmin = 4.98248e-09
vernier = 0.000796732
vernier = 0.00106231
vernier = 0.000531154
Gmin = 4.97521e-09
vernier = 0.000708206
vernier = 0.000944274
Gmin = 4.96678e-09
vernier = 0.000472137
vernier = 0.000629516
Gmin = 4.96189e-09
vernier = 0.000839354
vernier = 0.00111914
vernier = 0.000559569
Gmin = 4.95409e-09
vernier = 0.000746092
Gmin = 4.94601e-09
vernier = 0.000994789
vernier = 0.000497395
vernier = 0.000663193
Gmin = 4.94038e-09
vernier = 0.000884257
vernier = 0.000442128
Gmin = 4.93492e-09
vernier = 0.000589504
vernier = 0.000786006
Gmin = 4.92711e-09
vernier = 0.00104801
vernier = 0.000524004
Gmin = 4.92098e-09
vernier = 0.000698671
vernier = 0.000931562
vernier = 0.000465781
Gmin = 4.91469e-09
vernier = 0.000621041
vernier = 0.000828054
Gmin = 4.90738e-09
vernier = 0.00110407
vernier = 0.000552036
Gmin = 4.90027e-09
vernier = 0.000736048
vernier = 0.000981397
vernier = 0.000490699
Gmin = 4.89352e-09
vernier = 0.000654265
Gmin = 4.88652e-09
vernier = 0.000872352
vernier = 0.000436176
vernier = 0.000581568
Gmin = 4.88164e-09
vernier = 0.000775424
Gmin = 4.87313e-09
vernier = 0.0010339
vernier = 0.000516949
vernier = 0.000689265
Gmin = 4.86746e-09
vernier = 0.00091902
vernier = 0.00045951
Gmin = 4.86215e-09
vernier = 0.00061268
vernier = 0.000816907
Gmin = 4.85372e-09
vernier = 0.00108921
vernier = 0.000544604
vernier = 0.000726139
Gmin = 4.84756e-09
vernier = 0.000968185
vernier = 0.000484092
Gmin = 4.8414e-09
vernier = 0.000645456
vernier = 0.000860608
vernier = 0.000430304
Gmin = 4.83555e-09
vernier = 0.000573739
Gmin = 4.82948e-09
vernier = 0.000764985
vernier = 0.00101998
vernier = 0.00050999
Gmin = 4.82264e-09
vernier = 0.000679986
Gmin = 4.81527e-09
vernier = 0.000906648
vernier = 0.000453324
vernier = 0.000604432
Gmin = 4.81036e-09
vernier = 0.000805909
vernier = 0.00107454
Gmin = 4.80108e-09
vernier = 0.000537272
vernier = 0.000716363
Gmin = 4.79571e-09
vernier = 0.000955151
vernier = 0.000477575
vernier = 0.000636767
Gmin = 4.79037e-09
vernier = 0.000849022
vernier = 0.000424511
Gmin = 4.78503e-09
vernier = 0.000566015
vernier = 0.000754686
Gmin = 4.77815e-09
vernier = 0.00100625
vernier = 0.000503124
Gmin = 4.77215e-09
vernier = 0.000670832
vernier = 0.000894442
vernier = 0.000447221
Gmin = 4.76622e-09
vernier = 0.000596295
Gmin = 4.75983e-09
vernier = 0.000795059
vernier = 0.00106008
vernier = 0.000530039
Gmin = 4.75289e-09
vernier = 0.000706719
vernier = 0.000942292
Gmin = 4.74485e-09
vernier = 0.000471146
vernier = 0.000628194
Gmin = 4.7402e-09
vernier = 0.000837592
vernier = 0.000418796
vernier = 0.000558395
Gmin = 4.73557e-09
vernier = 0.000744526
Gmin = 4.72786e-09
vernier = 0.000992701
vernier = 0.000496351
vernier = 0.000661801
Gmin = 4.72249e-09
vernier = 0.000882401
vernier = 0.0004412
Gmin = 4.71728e-09
vernier = 0.000588267
vernier = 0.000784356
Gmin = 4.70983e-09
vernier = 0.00104581
vernier = 0.000522904
Gmin = 4.70399e-09
vernier = 0.000697205
vernier = 0.000929606
vernier = 0.000464803
Gmin = 4.69798e-09
vernier = 0.000619737
vernier = 0.000826316
Gmin = 4.69101e-09
vernier = 0.000413158
vernier = 0.000550877
Gmin = 4.68697e-09
vernier = 0.000734503
vernier = 0.000979337
vernier = 0.000489668
Gmin = 4.68052e-09
vernier = 0.000652891
Gmin = 4.67385e-09
vernier = 0.000870521
vernier = 0.000435261
vernier = 0.000580347
Gmin = 4.66919e-09
vernier = 0.000773796
Gmin = 4.66106e-09
vernier = 0.00103173
vernier = 0.000515864
vernier = 0.000687819
Gmin = 4.65566e-09
vernier = 0.000917091
vernier = 0.000458546
Gmin = 4.65059e-09
vernier = 0.000611394
vernier = 0.000815192
vernier = 0.000407596
Gmin = 4.64538e-09
vernier = 0.000543461
vernier = 0.000724615
Gmin = 4.63934e-09
vernier = 0.000966152
vernier = 0.000483076
Gmin = 4.63346e-09
vernier = 0.000644102
vernier = 0.000858802
vernier = 0.000429401
Gmin = 4.62787e-09
vernier = 0.000572534
Gmin = 4.62207e-09
vernier = 0.000763379
vernier = 0.00101784
vernier = 0.000508919
Gmin = 4.61554e-09
vernier = 0.000678559
Gmin = 4.6085e-09
vernier = 0.000904745
vernier = 0.000452372
vernier = 0.000603163
Gmin = 4.60381e-09
vernier = 0.000804217
vernier = 0.000402109
Gmin = 4.5971e-09
vernier = 0.000536145
Gmin = 4.59172e-09
vernier = 0.000714859
vernier = 0.000953146
vernier = 0.000476573
Gmin = 4.58563e-09
vernier = 0.00063543
Gmin = 4.57908e-09
vernier = 0.00084724
vernier = 0.00042362
vernier = 0.000564827
Gmin = 4.57472e-09
vernier = 0.000753102
vernier = 0.00100414
Gmin = 4.56647e-09
vernier = 0.000502068
vernier = 0.000669424
Gmin = 4.5617e-09
vernier = 0.000892565
vernier = 0.000446282
vernier = 0.000595043
Gmin = 4.55695e-09
vernier = 0.00079339
Gmin = 4.54905e-09
vernier = 0.00105785
vernier = 0.000528927
vernier = 0.000705236
Gmin = 4.54354e-09
vernier = 0.000940314
vernier = 0.000470157
Gmin = 4.5382e-09
vernier = 0.000626876
vernier = 0.000835834
vernier = 0.000417917
Gmin = 4.53293e-09
vernier = 0.000557223
Gmin = 4.52725e-09
vernier = 0.000742963
vernier = 0.000990617
vernier = 0.000495309
Gmin = 4.52109e-09
vernier = 0.000660411
vernier = 0.000880548
Gmin = 4.51395e-09
vernier = 0.000440274
vernier = 0.000587032
Gmin = 4.50981e-09
vernier = 0.000782709
vernier = 0.00104361
vernier = 0.000521806
Gmin = 4.50319e-09
vernier = 0.000695741
Gmin = 4.49635e-09
vernier = 0.000927655
vernier = 0.000463827
vernier = 0.000618436
Gmin = 4.49157e-09
vernier = 0.000824582
vernier = 0.000412291
Gmin = 4.48694e-09
vernier = 0.000549721
vernier = 0.000732961
Gmin = 4.48032e-09
vernier = 0.000977281
vernier = 0.000488641
Gmin = 4.47512e-09
vernier = 0.000651521
vernier = 0.000868694
vernier = 0.000434347
Gmin = 4.46978e-09
vernier = 0.000579129
vernier = 0.000772172
Gmin = 4.46358e-09
vernier = 0.00102956
vernier = 0.000514781
Gmin = 4.45756e-09
vernier = 0.000686375
vernier = 0.000915166
vernier = 0.000457583
Gmin = 4.45182e-09
vernier = 0.000610111
Gmin = 4.44589e-09
vernier = 0.000813481
vernier = 0.00040674
vernier = 0.00054232
Gmin = 4.44175e-09
vernier = 0.000723093
Gmin = 4.43453e-09
vernier = 0.000964124
vernier = 0.000482062
vernier = 0.000642749
Gmin = 4.42972e-09
vernier = 0.000856999
vernier = 0.0004285
Gmin = 4.42521e-09
vernier = 0.000571333
vernier = 0.000761777
Gmin = 4.41806e-09
vernier = 0.0010157
vernier = 0.000507851
vernier = 0.000677134
Gmin = 4.41282e-09
vernier = 0.000902846
vernier = 0.000451423
Gmin = 4.4076e-09
vernier = 0.000601897
vernier = 0.000802529
vernier = 0.000401264
Gmin = 4.40263e-09
vernier = 0.000535019
Gmin = 4.39748e-09
vernier = 0.000713359
vernier = 0.000951145
vernier = 0.000475572
Gmin = 4.39167e-09
vernier = 0.000634096
Gmin = 4.38541e-09
vernier = 0.000845462
vernier = 0.000422731
vernier = 0.000563641
Gmin = 4.38124e-09
vernier = 0.000751521
vernier = 0.00100203
Gmin = 4.37336e-09
vernier = 0.000501014
vernier = 0.000668018
Gmin = 4.36879e-09
vernier = 0.000890691
vernier = 0.000445345
vernier = 0.000593794
Gmin = 4.36426e-09
vernier = 0.000791725
vernier = 0.000593794
Gmin = 4.35908e-09
vernier = 0.000791725
vernier = 0.000593794
vernier = 0.000791724
Gmin = 4.35369e-09
vernier = 0.000593793
vernier = 0.000791724
vernier = 0.000593793
Gmin = 4.35003e-09
vernier = 0.000791724
vernier = 0.000593793
Gmin = 4.34487e-09
vernier = 0.000791724
vernier = 0.000593793
vernier = 0.000791724
vernier = 0.000593793
Gmin = 4.341e-09
vernier = 0.000791723
vernier = 0.000593793
Gmin = 4.33585e-09
vernier = 0.000791723
vernier = 0.000593792
vernier = 0.000791723
vernier = 0.000593792
Gmin = 4.33199e-09
vernier = 0.000791723
vernier = 0.000593792
Gmin = 4.32684e-09
vernier = 0.000791723
vernier = 0.000593792
vernier = 0.000791722
Gmin = 4.3215e-09
vernier = 0.000593792
vernier = 0.000791722
vernier = 0.000593792
Gmin = 4.31786e-09
vernier = 0.000791722
vernier = 0.000593792
Gmin = 4.31274e-09
vernier = 0.000791722
vernier = 0.000593791
vernier = 0.000791722
vernier = 0.000593791
Gmin = 4.3089e-09
vernier = 0.000791722
vernier = 0.000593791
Gmin = 4.30378e-09
vernier = 0.000791721
vernier = 0.000593791
vernier = 0.000791721
vernier = 0.000593791
Gmin = 4.29995e-09
vernier = 0.000791721
vernier = 0.000593791
Gmin = 4.29485e-09
vernier = 0.000791721
vernier = 0.000593791
vernier = 0.000791721
Gmin = 4.28954e-09
vernier = 0.00059379
vernier = 0.00079172
vernier = 0.00059379
Gmin = 4.28593e-09
vernier = 0.00079172
vernier = 0.00059379
Gmin = 4.28085e-09
vernier = 0.00079172
vernier = 0.00059379
vernier = 0.00079172
vernier = 0.00059379
Gmin = 4.27704e-09
vernier = 0.00079172
vernier = 0.00059379
Gmin = 4.27196e-09
vernier = 0.000791719
vernier = 0.000593789
vernier = 0.000791719
vernier = 0.000593789
Gmin = 4.26816e-09
vernier = 0.000791719
vernier = 0.000593789
Gmin = 4.26309e-09
vernier = 0.000791719
vernier = 0.000593789
vernier = 0.000791719
Gmin = 4.25782e-09
vernier = 0.000593789
vernier = 0.000791718
vernier = 0.000593789
Gmin = 4.25424e-09
vernier = 0.000791718
vernier = 0.000593789
Gmin = 4.24919e-09
vernier = 0.000791718
vernier = 0.000593788
vernier = 0.000791718
vernier = 0.000593788
Gmin = 4.24541e-09
vernier = 0.000791718
vernier = 0.000593788
Gmin = 4.24037e-09
vernier = 0.000791717
vernier = 0.000593788
vernier = 0.000791717
vernier = 0.000593788
Gmin = 4.2366e-09
vernier = 0.000791717
vernier = 0.000593788
Gmin = 4.23157e-09
vernier = 0.000791717
vernier = 0.000593788
vernier = 0.000791717
Gmin = 4.22634e-09
vernier = 0.000593787
vernier = 0.000791716
vernier = 0.000593787
Gmin = 4.22279e-09
vernier = 0.000791716
vernier = 0.000593787
Gmin = 4.21777e-09
vernier = 0.000791716
vernier = 0.000593787
vernier = 0.000791716
vernier = 0.000593787
Gmin = 4.21402e-09
vernier = 0.000791716
vernier = 0.000593787
Gmin = 4.20902e-09
vernier = 0.000791715
vernier = 0.000593787
vernier = 0.000791715
vernier = 0.000593786
Gmin = 4.20527e-09
vernier = 0.000791715
vernier = 0.000593786
Gmin = 4.20028e-09
vernier = 0.000791715
vernier = 0.000593786
vernier = 0.000791715
Gmin = 4.19509e-09
vernier = 0.000593786
vernier = 0.000791714
vernier = 0.000593786
Gmin = 4.19156e-09
vernier = 0.000791714
vernier = 0.000593786
Gmin = 4.18659e-09
vernier = 0.000791714
vernier = 0.000593785
vernier = 0.000791714
vernier = 0.000593785
Gmin = 4.18286e-09
vernier = 0.000791714
vernier = 0.000593785
Gmin = 4.1779e-09
vernier = 0.000791713
vernier = 0.000593785
vernier = 0.000791713
vernier = 0.000593785
Gmin = 4.17418e-09
vernier = 0.000791713
vernier = 0.000593785
Gmin = 4.16922e-09
vernier = 0.000791713
vernier = 0.000593785
vernier = 0.000791713
Gmin = 4.16407e-09
vernier = 0.000593784
vernier = 0.000791712
vernier = 0.000593784
Gmin = 4.16057e-09
vernier = 0.000791712
vernier = 0.000593784
Gmin = 4.15563e-09
vernier = 0.000791712
vernier = 0.000593784
vernier = 0.000791712
vernier = 0.000593784
Gmin = 4.15193e-09
vernier = 0.000791712
vernier = 0.000593784
Gmin = 4.147e-09
vernier = 0.000791711
vernier = 0.000593784
vernier = 0.000791711
vernier = 0.000593783
Gmin = 4.14331e-09
vernier = 0.000791711
vernier = 0.000593783
Gmin = 4.13839e-09
vernier = 0.000791711
vernier = 0.000593783
vernier = 0.000791711
Gmin = 4.13328e-09
vernier = 0.000593783
vernier = 0.00079171
vernier = 0.000593783
Gmin = 4.1298e-09
vernier = 0.00079171
vernier = 0.000593783
Gmin = 4.1249e-09
vernier = 0.00079171
vernier = 0.000593783
vernier = 0.00079171
vernier = 0.000593782
Gmin = 4.12123e-09
vernier = 0.00079171
vernier = 0.000593782
Gmin = 4.11634e-09
vernier = 0.000791709
vernier = 0.000593782
vernier = 0.000791709
vernier = 0.000593782
Gmin = 4.11267e-09
vernier = 0.000791709
vernier = 0.000593782
Gmin = 4.10779e-09
vernier = 0.000791709
vernier = 0.000593782
vernier = 0.000791709
Gmin = 4.10272e-09
vernier = 0.000593781
vernier = 0.000791708
vernier = 0.000593781
Gmin = 4.09927e-09
vernier = 0.000791708
vernier = 0.000593781
Gmin = 4.0944e-09
vernier = 0.000791708
vernier = 0.000593781
vernier = 0.000791708
vernier = 0.000593781
Gmin = 4.09076e-09
vernier = 0.000791708
vernier = 0.000593781
Gmin = 4.0859e-09
vernier = 0.000791707
vernier = 0.000593781
vernier = 0.000791707
vernier = 0.00059378
Gmin = 4.08226e-09
vernier = 0.000791707
vernier = 0.00059378
Gmin = 4.07742e-09
vernier = 0.000791707
vernier = 0.00059378
vernier = 0.000791707
Gmin = 4.07238e-09
vernier = 0.00059378
vernier = 0.000791706
vernier = 0.00059378
Gmin = 4.06896e-09
vernier = 0.000791706
vernier = 0.00059378
Gmin = 4.06413e-09
vernier = 0.000791706
vernier = 0.00059378
vernier = 0.000791706
vernier = 0.000593779
Gmin = 4.06051e-09
vernier = 0.000791706
vernier = 0.000593779
Gmin = 4.05569e-09
vernier = 0.000791705
vernier = 0.000593779
vernier = 0.000791705
vernier = 0.000593779
Gmin = 4.05208e-09
vernier = 0.000791705
vernier = 0.000593779
Gmin = 4.04727e-09
vernier = 0.000791705
vernier = 0.000593779
vernier = 0.000791705
Gmin = 4.04227e-09
vernier = 0.000593779
vernier = 0.000791704
vernier = 0.000593778
Gmin = 4.03887e-09
vernier = 0.000791704
vernier = 0.000593778
Gmin = 4.03408e-09
vernier = 0.000791704
vernier = 0.000593778
vernier = 0.000791704
vernier = 0.000593778
Gmin = 4.03048e-09
vernier = 0.000791704
vernier = 0.000593778
Gmin = 4.0257e-09
vernier = 0.000791703
vernier = 0.000593778
vernier = 0.000791703
vernier = 0.000593777
Gmin = 4.02212e-09
vernier = 0.000791703
vernier = 0.000593777
Gmin = 4.01734e-09
vernier = 0.000791703
vernier = 0.000593777
vernier = 0.000791703
Gmin = 4.01238e-09
vernier = 0.000593777
vernier = 0.000791703
vernier = 0.000593777
Gmin = 4.009e-09
vernier = 0.000791702
vernier = 0.000593777
Gmin = 4.00425e-09
vernier = 0.000791702
vernier = 0.000593777
vernier = 0.000791702
vernier = 0.000593776
Gmin = 4.00068e-09
vernier = 0.000791702
vernier = 0.000593776
Gmin = 3.99593e-09
vernier = 0.000791702
vernier = 0.000593776
vernier = 0.000791701
vernier = 0.000593776
Gmin = 3.99238e-09
vernier = 0.000791701
vernier = 0.000593776
Gmin = 3.98764e-09
vernier = 0.000791701
vernier = 0.000593776
vernier = 0.000791701
Gmin = 3.98271e-09
vernier = 0.000593776
vernier = 0.000791701
vernier = 0.000593775
Gmin = 3.97936e-09
vernier = 0.0007917
vernier = 0.000593775
Gmin = 3.97464e-09
vernier = 0.0007917
vernier = 0.000593775
vernier = 0.0007917
vernier = 0.000593775
Gmin = 3.9711e-09
vernier = 0.0007917
vernier = 0.000593775
Gmin = 3.96639e-09
vernier = 0.0007917
vernier = 0.000593775
vernier = 0.000791699
vernier = 0.000593775
Gmin = 3.96286e-09
vernier = 0.000791699
vernier = 0.000593774
Gmin = 3.95815e-09
vernier = 0.000791699
vernier = 0.000593774
vernier = 0.000791699
Gmin = 3.95326e-09
vernier = 0.000593774
vernier = 0.000791699
vernier = 0.000593774
Gmin = 3.94994e-09
vernier = 0.000791698
vernier = 0.000593774
Gmin = 3.94525e-09
vernier = 0.000791698
vernier = 0.000593774
vernier = 0.000791698
vernier = 0.000593773
Gmin = 3.94174e-09
vernier = 0.000791698
vernier = 0.000593773
Gmin = 3.93706e-09
vernier = 0.000791698
vernier = 0.000593773
vernier = 0.000791697
vernier = 0.000593773
Gmin = 3.93355e-09
vernier = 0.000791697
vernier = 0.000593773
Gmin = 3.92889e-09
vernier = 0.000791697
vernier = 0.000593773
vernier = 0.000791697
Gmin = 3.92403e-09
vernier = 0.000593773
vernier = 0.000791697
vernier = 0.000593772
Gmin = 3.92073e-09
vernier = 0.000791696
vernier = 0.000593772
Gmin = 3.91608e-09
vernier = 0.000791696
vernier = 0.000593772
vernier = 0.000791696
vernier = 0.000593772
Gmin = 3.91259e-09
vernier = 0.000791696
vernier = 0.000593772
Gmin = 3.90795e-09
vernier = 0.000791696
vernier = 0.000593772
vernier = 0.000791695
vernier = 0.000593772
Gmin = 3.90447e-09
vernier = 0.000791695
vernier = 0.000593771
Gmin = 3.89984e-09
vernier = 0.000791695
vernier = 0.000593771
vernier = 0.000791695
Gmin = 3.89501e-09
vernier = 0.000593771
vernier = 0.000791695
vernier = 0.000593771
Gmin = 3.89174e-09
vernier = 0.000791694
vernier = 0.000593771
Gmin = 3.88712e-09
vernier = 0.000791694
vernier = 0.000593771
vernier = 0.000791694
vernier = 0.00059377
Gmin = 3.88366e-09
vernier = 0.000791694
vernier = 0.00059377
Gmin = 3.87905e-09
vernier = 0.000791694
vernier = 0.00059377
vernier = 0.000791693
vernier = 0.00059377
Gmin = 3.8756e-09
vernier = 0.000791693
vernier = 0.00059377
Gmin = 3.871e-09
vernier = 0.000791693
vernier = 0.00059377
vernier = 0.000791693
Gmin = 3.86621e-09
vernier = 0.00059377
vernier = 0.000791693
vernier = 0.000593769
Gmin = 3.86296e-09
vernier = 0.000791692
vernier = 0.000593769
Gmin = 3.85838e-09
vernier = 0.000791692
vernier = 0.000593769
vernier = 0.000791692
vernier = 0.000593769
Gmin = 3.85495e-09
vernier = 0.000791692
vernier = 0.000593769
Gmin = 3.85037e-09
vernier = 0.000791692
vernier = 0.000593769
vernier = 0.000791691
vernier = 0.000593769
Gmin = 3.84694e-09
vernier = 0.000791691
vernier = 0.000593768
Gmin = 3.84238e-09
vernier = 0.000791691
vernier = 0.000593768
vernier = 0.000791691
Gmin = 3.83763e-09
vernier = 0.000593768
vernier = 0.000791691
vernier = 0.000593768
Gmin = 3.8344e-09
vernier = 0.00079169
vernier = 0.000593768
Gmin = 3.82985e-09
vernier = 0.00079169
vernier = 0.000593768
vernier = 0.00079169
vernier = 0.000593768
Gmin = 3.82644e-09
vernier = 0.00079169
vernier = 0.000593767
Gmin = 3.8219e-09
vernier = 0.00079169
vernier = 0.000593767
vernier = 0.000791689
vernier = 0.000593767
Gmin = 3.8185e-09
vernier = 0.000791689
vernier = 0.000593767
Gmin = 3.81397e-09
vernier = 0.000791689
vernier = 0.000593767
vernier = 0.000791689
Gmin = 3.80925e-09
vernier = 0.000593767
vernier = 0.000791689
vernier = 0.000593766
Gmin = 3.80605e-09
vernier = 0.000791688
vernier = 0.000593766
Gmin = 3.80153e-09
vernier = 0.000791688
vernier = 0.000593766
vernier = 0.000791688
vernier = 0.000593766
Gmin = 3.79815e-09
vernier = 0.000791688
vernier = 0.000593766
Gmin = 3.79364e-09
vernier = 0.000791688
vernier = 0.000593766
vernier = 0.000791687
vernier = 0.000593766
Gmin = 3.79026e-09
vernier = 0.000791687
vernier = 0.000593765
Gmin = 3.78577e-09
vernier = 0.000791687
vernier = 0.000593765
vernier = 0.000791687
Gmin = 3.78109e-09
vernier = 0.000593765
vernier = 0.000791687
vernier = 0.000593765
Gmin = 3.77791e-09
vernier = 0.000791686
vernier = 0.000593765
Gmin = 3.77342e-09
vernier = 0.000791686
vernier = 0.000593765
vernier = 0.000791686
vernier = 0.000593765
Gmin = 3.77006e-09
vernier = 0.000791686
vernier = 0.000593764
Gmin = 3.76559e-09
vernier = 0.000791686
vernier = 0.000593764
vernier = 0.000791685
vernier = 0.000593764
Gmin = 3.76224e-09
vernier = 0.000791685
vernier = 0.000593764
Gmin = 3.75777e-09
vernier = 0.000791685
vernier = 0.000593764
vernier = 0.000791685
Gmin = 3.75313e-09
vernier = 0.000593764
vernier = 0.000791685
vernier = 0.000593764
Gmin = 3.74997e-09
vernier = 0.000791684
vernier = 0.000593763
Gmin = 3.74552e-09
vernier = 0.000791684
vernier = 0.000593763
vernier = 0.000791684
vernier = 0.000593763
Gmin = 3.74219e-09
vernier = 0.000791684
vernier = 0.000593763
Gmin = 3.73775e-09
vernier = 0.000791684
vernier = 0.000593763
vernier = 0.000791684
vernier = 0.000593763
Gmin = 3.73442e-09
vernier = 0.000791683
vernier = 0.000593762
Gmin = 3.72999e-09
vernier = 0.000791683
vernier = 0.000593762
vernier = 0.000791683
Gmin = 3.72538e-09
vernier = 0.000593762
vernier = 0.000791683
vernier = 0.000593762
Gmin = 3.72225e-09
vernier = 0.000791683
vernier = 0.000593762
Gmin = 3.71783e-09
vernier = 0.000791682
vernier = 0.000593762
vernier = 0.000791682
vernier = 0.000593762
Gmin = 3.71452e-09
vernier = 0.000791682
vernier = 0.000593761
Gmin = 3.71011e-09
vernier = 0.000791682
vernier = 0.000593761
vernier = 0.000791682
vernier = 0.000593761
Gmin = 3.70681e-09
vernier = 0.000791681
vernier = 0.000593761
Gmin = 3.70241e-09
vernier = 0.000791681
vernier = 0.000593761
vernier = 0.000791681
Gmin = 3.69783e-09
vernier = 0.000593761
vernier = 0.000791681
vernier = 0.000593761
Gmin = 3.69472e-09
vernier = 0.000791681
vernier = 0.00059376
Gmin = 3.69034e-09
vernier = 0.00079168
vernier = 0.00059376
vernier = 0.00079168
vernier = 0.00059376
Gmin = 3.68705e-09
vernier = 0.00079168
vernier = 0.00059376
Gmin = 3.68268e-09
vernier = 0.00079168
vernier = 0.00059376
vernier = 0.00079168
vernier = 0.00059376
Gmin = 3.6794e-09
vernier = 0.000791679
vernier = 0.00059376
Gmin = 3.67503e-09
vernier = 0.000791679
vernier = 0.000593759
vernier = 0.000791679
Gmin = 3.67049e-09
vernier = 0.000593759
vernier = 0.000791679
vernier = 0.000593759
Gmin = 3.6674e-09
vernier = 0.000791679
vernier = 0.000593759
Gmin = 3.66305e-09
vernier = 0.000791678
vernier = 0.000593759
vernier = 0.000791678
vernier = 0.000593759
Gmin = 3.65979e-09
vernier = 0.000791678
vernier = 0.000593758
Gmin = 3.65545e-09
vernier = 0.000791678
vernier = 0.000593758
vernier = 0.000791678
vernier = 0.000593758
Gmin = 3.65219e-09
vernier = 0.000791677
vernier = 0.000593758
Gmin = 3.64786e-09
vernier = 0.000791677
vernier = 0.000593758
vernier = 0.000791677
Gmin = 3.64335e-09
vernier = 0.000593758
vernier = 0.000791677
vernier = 0.000593758
Gmin = 3.64029e-09
vernier = 0.000791677
vernier = 0.000593757
Gmin = 3.63597e-09
vernier = 0.000791676
vernier = 0.000593757
vernier = 0.000791676
vernier = 0.000593757
Gmin = 3.63273e-09
vernier = 0.000791676
vernier = 0.000593757
Gmin = 3.62842e-09
vernier = 0.000791676
vernier = 0.000593757
vernier = 0.000791676
vernier = 0.000593757
Gmin = 3.62519e-09
vernier = 0.000791675
vernier = 0.000593757
Gmin = 3.62089e-09
vernier = 0.000791675
vernier = 0.000593756
vernier = 0.000791675
Gmin = 3.61641e-09
vernier = 0.000593756
vernier = 0.000791675
vernier = 0.000593756
Gmin = 3.61337e-09
vernier = 0.000791675
vernier = 0.000593756
Gmin = 3.60908e-09
vernier = 0.000791674
vernier = 0.000593756
vernier = 0.000791674
vernier = 0.000593756
Gmin = 3.60587e-09
vernier = 0.000791674
vernier = 0.000593756
Gmin = 3.60159e-09
vernier = 0.000791674
vernier = 0.000593755
vernier = 0.000791674
vernier = 0.000593755
Gmin = 3.59839e-09
vernier = 0.000791673
vernier = 0.000593755
Gmin = 3.59412e-09
vernier = 0.000791673
vernier = 0.000593755
vernier = 0.000791673
Gmin = 3.58967e-09
vernier = 0.000593755
vernier = 0.000791673
vernier = 0.000593755
Gmin = 3.58666e-09
vernier = 0.000791673
vernier = 0.000593754
Gmin = 3.5824e-09
vernier = 0.000791672
vernier = 0.000593754
vernier = 0.000791672
vernier = 0.000593754
Gmin = 3.57921e-09
vernier = 0.000791672
vernier = 0.000593754
Gmin = 3.57496e-09
vernier = 0.000791672
vernier = 0.000593754
vernier = 0.000791672
vernier = 0.000593754
Gmin = 3.57178e-09
vernier = 0.000791671
vernier = 0.000593754
Gmin = 3.56754e-09
vernier = 0.000791671
vernier = 0.000593753
vernier = 0.000791671
Gmin = 3.56313e-09
vernier = 0.000593753
vernier = 0.000791671
vernier = 0.000593753
Gmin = 3.56014e-09
vernier = 0.000791671
vernier = 0.000593753
Gmin = 3.55591e-09
vernier = 0.00079167
vernier = 0.000593753
vernier = 0.00079167
vernier = 0.000593753
Gmin = 3.55275e-09
vernier = 0.00079167
vernier = 0.000593753
Gmin = 3.54853e-09
vernier = 0.00079167
vernier = 0.000593752
vernier = 0.00079167
vernier = 0.000593752
Gmin = 3.54537e-09
vernier = 0.000791669
vernier = 0.000593752
Gmin = 3.54116e-09
vernier = 0.000791669
vernier = 0.000593752
vernier = 0.000791669
Gmin = 3.53679e-09
vernier = 0.000593752
vernier = 0.000791669
vernier = 0.000593752
Gmin = 3.53381e-09
vernier = 0.000791669
vernier = 0.000593751
Gmin = 3.52962e-09
vernier = 0.000791668
vernier = 0.000593751
vernier = 0.000791668
vernier = 0.000593751
Gmin = 3.52648e-09
vernier = 0.000791668
vernier = 0.000593751
Gmin = 3.52229e-09
vernier = 0.000791668
vernier = 0.000593751
vernier = 0.000791668
vernier = 0.000593751
Gmin = 3.51916e-09
vernier = 0.000791667
vernier = 0.000593751
Gmin = 3.51498e-09
vernier = 0.000791667
vernier = 0.00059375
vernier = 0.000791667
Gmin = 3.51064e-09
vernier = 0.00059375
vernier = 0.000791667
vernier = 0.00059375
Gmin = 3.50768e-09
vernier = 0.000791667
vernier = 0.00059375
Gmin = 3.50352e-09
vernier = 0.000791666
vernier = 0.00059375
vernier = 0.000791666
vernier = 0.00059375
Gmin = 3.5004e-09
vernier = 0.000791666
vernier = 0.00059375
Gmin = 3.49625e-09
vernier = 0.000791666
vernier = 0.000593749
vernier = 0.000791666
vernier = 0.000593749
Gmin = 3.49314e-09
vernier = 0.000791665
vernier = 0.000593749
Gmin = 3.48899e-09
vernier = 0.000791665
vernier = 0.000593749
vernier = 0.000791665
Gmin = 3.48468e-09
vernier = 0.000593749
vernier = 0.000791665
vernier = 0.000593749
Gmin = 3.48175e-09
vernier = 0.000791665
vernier = 0.000593749
Gmin = 3.47762e-09
vernier = 0.000791665
vernier = 0.000593748
vernier = 0.000791664
vernier = 0.000593748
Gmin = 3.47452e-09
vernier = 0.000791664
vernier = 0.000593748
Gmin = 3.4704e-09
vernier = 0.000791664
vernier = 0.000593748
vernier = 0.000791664
vernier = 0.000593748
Gmin = 3.46731e-09
vernier = 0.000791664
vernier = 0.000593748
Gmin = 3.46319e-09
vernier = 0.000445311
vernier = 0.000593747
vernier = 0.000445311
Gmin = 3.46101e-09
vernier = 0.000593747
vernier = 0.000445311
Gmin = 3.45793e-09
vernier = 0.000593747
vernier = 0.00044531
vernier = 0.000593747
vernier = 0.00044531
Gmin = 3.45562e-09
vernier = 0.000593747
vernier = 0.00044531
Gmin = 3.45254e-09
vernier = 0.000593747
vernier = 0.00044531
vernier = 0.000593747
vernier = 0.00044531
Gmin = 3.45024e-09
vernier = 0.000593746
vernier = 0.00044531
Gmin = 3.44717e-09
vernier = 0.000593746
vernier = 0.00044531
vernier = 0.000593746
Gmin = 3.44397e-09
vernier = 0.00044531
vernier = 0.000593746
vernier = 0.00044531
Gmin = 3.4418e-09
vernier = 0.000593746
vernier = 0.000445309
Gmin = 3.43874e-09
vernier = 0.000593746
vernier = 0.000445309
vernier = 0.000593746
vernier = 0.000445309
Gmin = 3.43644e-09
vernier = 0.000593745
vernier = 0.000445309
Gmin = 3.43338e-09
vernier = 0.000593745
vernier = 0.000445309
vernier = 0.000593745
vernier = 0.000445309
Gmin = 3.43109e-09
vernier = 0.000593745
vernier = 0.000445309
Gmin = 3.42803e-09
vernier = 0.000593745
vernier = 0.000445309
vernier = 0.000593745
Gmin = 3.42486e-09
vernier = 0.000445309
vernier = 0.000593745
vernier = 0.000445308
Gmin = 3.4227e-09
vernier = 0.000593744
vernier = 0.000445308
Gmin = 3.41965e-09
vernier = 0.000593744
vernier = 0.000445308
vernier = 0.000593744
vernier = 0.000445308
Gmin = 3.41737e-09
vernier = 0.000593744
vernier = 0.000445308
Gmin = 3.41432e-09
vernier = 0.000593744
vernier = 0.000445308
vernier = 0.000593744
vernier = 0.000445308
Gmin = 3.41204e-09
vernier = 0.000593743
vernier = 0.000445308
Gmin = 3.40901e-09
vernier = 0.000593743
vernier = 0.000445308
vernier = 0.000593743
Gmin = 3.40585e-09
vernier = 0.000445307
vernier = 0.000593743
vernier = 0.000445307
Gmin = 3.4037e-09
vernier = 0.000593743
vernier = 0.000445307
Gmin = 3.40067e-09
vernier = 0.000593743
vernier = 0.000445307
vernier = 0.000593743
vernier = 0.000445307
Gmin = 3.3984e-09
vernier = 0.000593742
vernier = 0.000445307
Gmin = 3.39537e-09
vernier = 0.000593742
vernier = 0.000445307
vernier = 0.000593742
vernier = 0.000445307
Gmin = 3.3931e-09
vernier = 0.000593742
vernier = 0.000445306
Gmin = 3.39008e-09
vernier = 0.000593742
vernier = 0.000445306
vernier = 0.000593742
Gmin = 3.38694e-09
vernier = 0.000445306
vernier = 0.000593742
vernier = 0.000445306
Gmin = 3.38481e-09
vernier = 0.000593741
vernier = 0.000445306
Gmin = 3.38179e-09
vernier = 0.000593741
vernier = 0.000445306
vernier = 0.000593741
vernier = 0.000445306
Gmin = 3.37953e-09
vernier = 0.000593741
vernier = 0.000445306
Gmin = 3.37653e-09
vernier = 0.000593741
vernier = 0.000445306
vernier = 0.000593741
vernier = 0.000445305
Gmin = 3.37427e-09
vernier = 0.000593741
vernier = 0.000445305
Gmin = 3.37127e-09
vernier = 0.00059374
vernier = 0.000445305
vernier = 0.00059374
Gmin = 3.36814e-09
vernier = 0.000445305
vernier = 0.00059374
vernier = 0.000445305
Gmin = 3.36602e-09
vernier = 0.00059374
vernier = 0.000445305
Gmin = 3.36302e-09
vernier = 0.00059374
vernier = 0.000445305
vernier = 0.00059374
vernier = 0.000445305
Gmin = 3.36078e-09
vernier = 0.000593739
vernier = 0.000445305
Gmin = 3.35778e-09
vernier = 0.000593739
vernier = 0.000445304
vernier = 0.000593739
vernier = 0.000445304
Gmin = 3.35554e-09
vernier = 0.000593739
vernier = 0.000445304
Gmin = 3.35256e-09
vernier = 0.000593739
vernier = 0.000445304
vernier = 0.000593739
Gmin = 3.34945e-09
vernier = 0.000445304
vernier = 0.000593739
vernier = 0.000445304
Gmin = 3.34733e-09
vernier = 0.000593738
vernier = 0.000445304
Gmin = 3.34435e-09
vernier = 0.000593738
vernier = 0.000445304
vernier = 0.000593738
vernier = 0.000445304
Gmin = 3.34212e-09
vernier = 0.000593738
vernier = 0.000445303
Gmin = 3.33915e-09
vernier = 0.000593738
vernier = 0.000445303
vernier = 0.000593738
vernier = 0.000445303
Gmin = 3.33692e-09
vernier = 0.000593738
vernier = 0.000445303
Gmin = 3.33395e-09
vernier = 0.000593737
vernier = 0.000445303
vernier = 0.000593737
Gmin = 3.33086e-09
vernier = 0.000445303
vernier = 0.000593737
vernier = 0.000445303
Gmin = 3.32875e-09
vernier = 0.000593737
vernier = 0.000445303
Gmin = 3.32579e-09
vernier = 0.000593737
vernier = 0.000445303
vernier = 0.000593737
vernier = 0.000445302
Gmin = 3.32357e-09
vernier = 0.000593737
vernier = 0.000445302
Gmin = 3.32061e-09
vernier = 0.000593736
vernier = 0.000445302
vernier = 0.000593736
vernier = 0.000445302
Gmin = 3.3184e-09
vernier = 0.000593736
vernier = 0.000445302
Gmin = 3.31544e-09
vernier = 0.000593736
vernier = 0.000445302
vernier = 0.000593736
Gmin = 3.31237e-09
vernier = 0.000445302
vernier = 0.000593736
vernier = 0.000445302
Gmin = 3.31028e-09
vernier = 0.000593735
vernier = 0.000445302
Gmin = 3.30733e-09
vernier = 0.000593735
vernier = 0.000445301
vernier = 0.000593735
vernier = 0.000445301
Gmin = 3.30512e-09
vernier = 0.000593735
vernier = 0.000445301
Gmin = 3.30218e-09
vernier = 0.000593735
vernier = 0.000445301
vernier = 0.000593735
vernier = 0.000445301
Gmin = 3.29998e-09
vernier = 0.000593735
vernier = 0.000445301
Gmin = 3.29704e-09
vernier = 0.000593734
vernier = 0.000445301
vernier = 0.000593734
Gmin = 3.29398e-09
vernier = 0.000445301
vernier = 0.000593734
vernier = 0.000445301
Gmin = 3.2919e-09
vernier = 0.000593734
vernier = 0.0004453
Gmin = 3.28897e-09
vernier = 0.000593734
vernier = 0.0004453
vernier = 0.000593734
vernier = 0.0004453
Gmin = 3.28678e-09
vernier = 0.000593734
vernier = 0.0004453
Gmin = 3.28385e-09
vernier = 0.000593733
vernier = 0.0004453
vernier = 0.000593733
vernier = 0.0004453
Gmin = 3.28166e-09
vernier = 0.000593733
vernier = 0.0004453
Gmin = 3.27874e-09
vernier = 0.000593733
vernier = 0.0004453
vernier = 0.000593733
Gmin = 3.2757e-09
vernier = 0.0004453
vernier = 0.000593733
vernier = 0.000445299
Gmin = 3.27363e-09
vernier = 0.000593732
vernier = 0.000445299
Gmin = 3.27072e-09
vernier = 0.000593732
vernier = 0.000445299
vernier = 0.000593732
vernier = 0.000445299
Gmin = 3.26854e-09
vernier = 0.000593732
vernier = 0.000445299
Gmin = 3.26563e-09
vernier = 0.000593732
vernier = 0.000445299
vernier = 0.000593732
vernier = 0.000445299
Gmin = 3.26345e-09
vernier = 0.000593732
vernier = 0.000445299
Gmin = 3.26054e-09
vernier = 0.000593731
vernier = 0.000445299
vernier = 0.000593731
Gmin = 3.25752e-09
vernier = 0.000445298
vernier = 0.000593731
vernier = 0.000445298
Gmin = 3.25546e-09
vernier = 0.000593731
vernier = 0.000445298
Gmin = 3.25257e-09
vernier = 0.000593731
vernier = 0.000445298
vernier = 0.000593731
vernier = 0.000445298
Gmin = 3.25039e-09
vernier = 0.000593731
vernier = 0.000445298
Gmin = 3.2475e-09
vernier = 0.00059373
vernier = 0.000445298
vernier = 0.00059373
vernier = 0.000445298
Gmin = 3.24533e-09
vernier = 0.00059373
vernier = 0.000445298
Gmin = 3.24244e-09
vernier = 0.00059373
vernier = 0.000445297
vernier = 0.00059373
Gmin = 3.23944e-09
vernier = 0.000445297
vernier = 0.00059373
vernier = 0.000445297
Gmin = 3.23739e-09
vernier = 0.00059373
vernier = 0.000445297
Gmin = 3.23451e-09
vernier = 0.000593729
vernier = 0.000445297
vernier = 0.000593729
vernier = 0.000445297
Gmin = 3.23235e-09
vernier = 0.000593729
vernier = 0.000445297
Gmin = 3.22948e-09
vernier = 0.000593729
vernier = 0.000445297
vernier = 0.000593729
vernier = 0.000445297
Gmin = 3.22732e-09
vernier = 0.000593729
vernier = 0.000445296
Gmin = 3.22445e-09
vernier = 0.000593728
vernier = 0.000445296
vernier = 0.000593728
Gmin = 3.22146e-09
vernier = 0.000445296
vernier = 0.000593728
vernier = 0.000445296
Gmin = 3.21942e-09
vernier = 0.000593728
vernier = 0.000445296
Gmin = 3.21656e-09
vernier = 0.000593728
vernier = 0.000445296
vernier = 0.000593728
vernier = 0.000445296
Gmin = 3.21441e-09
vernier = 0.000593728
vernier = 0.000445296
Gmin = 3.21155e-09
vernier = 0.000593727
vernier = 0.000445296
vernier = 0.000593727
vernier = 0.000445295
Gmin = 3.20941e-09
vernier = 0.000593727
vernier = 0.000445295
Gmin = 3.20655e-09
vernier = 0.000593727
vernier = 0.000445295
vernier = 0.000593727
Gmin = 3.20358e-09
vernier = 0.000445295
vernier = 0.000593727
vernier = 0.000445295
Gmin = 3.20156e-09
vernier = 0.000593727
vernier = 0.000445295
Gmin = 3.19871e-09
vernier = 0.000593726
vernier = 0.000445295
vernier = 0.000593726
vernier = 0.000445295
Gmin = 3.19657e-09
vernier = 0.000593726
vernier = 0.000445295
Gmin = 3.19372e-09
vernier = 0.000593726
vernier = 0.000445294
vernier = 0.000593726
vernier = 0.000445294
Gmin = 3.19159e-09
vernier = 0.000593726
vernier = 0.000445294
Gmin = 3.18875e-09
vernier = 0.000593726
vernier = 0.000445294
vernier = 0.000593725
Gmin = 3.18579e-09
vernier = 0.000445294
vernier = 0.000593725
vernier = 0.000445294
Gmin = 3.18379e-09
vernier = 0.000593725
vernier = 0.000445294
Gmin = 3.18095e-09
vernier = 0.000593725
vernier = 0.000445294
vernier = 0.000593725
vernier = 0.000445294
Gmin = 3.17883e-09
vernier = 0.000593725
vernier = 0.000445293
Gmin = 3.176e-09
vernier = 0.000593724
vernier = 0.000445293
vernier = 0.000593724
vernier = 0.000445293
Gmin = 3.17388e-09
vernier = 0.000593724
vernier = 0.000445293
Gmin = 3.17105e-09
vernier = 0.000593724
vernier = 0.000445293
vernier = 0.000593724
Gmin = 3.16811e-09
vernier = 0.000445293
vernier = 0.000593724
vernier = 0.000445293
Gmin = 3.16611e-09
vernier = 0.000593724
vernier = 0.000445293
Gmin = 3.1633e-09
vernier = 0.000593723
vernier = 0.000445293
vernier = 0.000593723
vernier = 0.000445292
Gmin = 3.16118e-09
vernier = 0.000593723
vernier = 0.000445292
Gmin = 3.15837e-09
vernier = 0.000593723
vernier = 0.000445292
vernier = 0.000593723
vernier = 0.000445292
Gmin = 3.15626e-09
vernier = 0.000593723
vernier = 0.000445292
Gmin = 3.15345e-09
vernier = 0.000593723
vernier = 0.000445292
vernier = 0.000593722
Gmin = 3.15053e-09
vernier = 0.000445292
vernier = 0.000593722
vernier = 0.000445292
Gmin = 3.14854e-09
vernier = 0.000593722
vernier = 0.000445292
Gmin = 3.14574e-09
vernier = 0.000593722
vernier = 0.000445291
vernier = 0.000593722
vernier = 0.000445291
Gmin = 3.14364e-09
vernier = 0.000593722
vernier = 0.000445291
Gmin = 3.14084e-09
vernier = 0.000593722
vernier = 0.000445291
vernier = 0.000593721
vernier = 0.000445291
Gmin = 3.13874e-09
vernier = 0.000593721
vernier = 0.000445291
Gmin = 3.13595e-09
vernier = 0.000593721
vernier = 0.000445291
vernier = 0.000593721
Gmin = 3.13304e-09
vernier = 0.000445291
vernier = 0.000593721
vernier = 0.000445291
Gmin = 3.13107e-09
vernier = 0.000593721
vernier = 0.00044529
Gmin = 3.12828e-09
vernier = 0.00059372
vernier = 0.00044529
vernier = 0.00059372
vernier = 0.00044529
Gmin = 3.12619e-09
vernier = 0.00059372
vernier = 0.00044529
Gmin = 3.12341e-09
vernier = 0.00059372
vernier = 0.00044529
vernier = 0.00059372
vernier = 0.00044529
Gmin = 3.12132e-09
vernier = 0.00059372
vernier = 0.00044529
Gmin = 3.11854e-09
vernier = 0.00059372
vernier = 0.00044529
vernier = 0.000593719
Gmin = 3.11565e-09
vernier = 0.00044529
vernier = 0.000593719
vernier = 0.000445289
Gmin = 3.11369e-09
vernier = 0.000593719
vernier = 0.000445289
Gmin = 3.11092e-09
vernier = 0.000593719
vernier = 0.000445289
vernier = 0.000593719
vernier = 0.000445289
Gmin = 3.10884e-09
vernier = 0.000593719
vernier = 0.000445289
Gmin = 3.10607e-09
vernier = 0.000593719
vernier = 0.000445289
vernier = 0.000593718
vernier = 0.000445289
Gmin = 3.104e-09
vernier = 0.000593718
vernier = 0.000445289
Gmin = 3.10123e-09
vernier = 0.000593718
vernier = 0.000445289
vernier = 0.000593718
Gmin = 3.09836e-09
vernier = 0.000445288
vernier = 0.000593718
vernier = 0.000445288
Gmin = 3.09641e-09
vernier = 0.000593718
vernier = 0.000445288
Gmin = 3.09365e-09
vernier = 0.000593718
vernier = 0.000445288
vernier = 0.000593717
vernier = 0.000445288
Gmin = 3.09158e-09
vernier = 0.000593717
vernier = 0.000445288
Gmin = 3.08883e-09
vernier = 0.000593717
vernier = 0.000445288
vernier = 0.000593717
vernier = 0.000445288
Gmin = 3.08677e-09
vernier = 0.000593717
vernier = 0.000445288
Gmin = 3.08402e-09
vernier = 0.000593717
vernier = 0.000445287
vernier = 0.000593716
Gmin = 3.08116e-09
vernier = 0.000445287
vernier = 0.000593716
vernier = 0.000445287
Gmin = 3.07922e-09
vernier = 0.000593716
vernier = 0.000445287
Gmin = 3.07648e-09
vernier = 0.000593716
vernier = 0.000445287
vernier = 0.000593716
vernier = 0.000445287
Gmin = 3.07442e-09
vernier = 0.000593716
vernier = 0.000445287
Gmin = 3.07169e-09
vernier = 0.000593716
vernier = 0.000445287
vernier = 0.000593715
vernier = 0.000445287
Gmin = 3.06964e-09
vernier = 0.000593715
vernier = 0.000445286
Gmin = 3.0669e-09
vernier = 0.000593715
vernier = 0.000445286
vernier = 0.000593715
Gmin = 3.06406e-09
vernier = 0.000445286
vernier = 0.000593715
vernier = 0.000445286
Gmin = 3.06213e-09
vernier = 0.000593715
vernier = 0.000445286
Gmin = 3.0594e-09
vernier = 0.000593715
vernier = 0.000445286
vernier = 0.000593714
vernier = 0.000445286
Gmin = 3.05736e-09
vernier = 0.000593714
vernier = 0.000445286
Gmin = 3.05464e-09
vernier = 0.000593714
vernier = 0.000445286
vernier = 0.000593714
vernier = 0.000445285
Gmin = 3.0526e-09
vernier = 0.000593714
vernier = 0.000445285
Gmin = 3.04988e-09
vernier = 0.000593714
vernier = 0.000445285
vernier = 0.000593713
Gmin = 3.04705e-09
vernier = 0.000445285
vernier = 0.000593713
vernier = 0.000445285
Gmin = 3.04513e-09
vernier = 0.000593713
vernier = 0.000445285
Gmin = 3.04242e-09
vernier = 0.000593713
vernier = 0.000445285
vernier = 0.000593713
vernier = 0.000445285
Gmin = 3.04039e-09
vernier = 0.000593713
vernier = 0.000445285
Gmin = 3.03768e-09
vernier = 0.000593713
vernier = 0.000445284
vernier = 0.000593712
vernier = 0.000445284
Gmin = 3.03566e-09
vernier = 0.000593712
vernier = 0.000445284
Gmin = 3.03295e-09
vernier = 0.000593712
vernier = 0.000445284
vernier = 0.000593712
Gmin = 3.03014e-09
vernier = 0.000445284
vernier = 0.000593712
vernier = 0.000445284
Gmin = 3.02823e-09
vernier = 0.000593712
vernier = 0.000445284
Gmin = 3.02554e-09
vernier = 0.000593712
vernier = 0.000445284
vernier = 0.000593711
vernier = 0.000445284
Gmin = 3.02352e-09
vernier = 0.000593711
vernier = 0.000445283
Gmin = 3.02082e-09
vernier = 0.000593711
vernier = 0.000445283
vernier = 0.000593711
vernier = 0.000445283
Gmin = 3.01881e-09
vernier = 0.000593711
vernier = 0.000445283
Gmin = 3.01612e-09
vernier = 0.000593711
vernier = 0.000445283
vernier = 0.000593711
Gmin = 3.01332e-09
vernier = 0.000445283
vernier = 0.00059371
vernier = 0.000445283
Gmin = 3.01142e-09
vernier = 0.00059371
vernier = 0.000445283
Gmin = 3.00874e-09
vernier = 0.00059371
vernier = 0.000445283
vernier = 0.00059371
vernier = 0.000445282
Gmin = 3.00673e-09
vernier = 0.00059371
vernier = 0.000445282
Gmin = 3.00406e-09
vernier = 0.00059371
vernier = 0.000445282
vernier = 0.000593709
vernier = 0.000445282
Gmin = 3.00205e-09
vernier = 0.000593709
vernier = 0.000445282
Gmin = 2.99938e-09
vernier = 0.000593709
vernier = 0.000445282
vernier = 0.000593709
Gmin = 2.9966e-09
vernier = 0.000445282
vernier = 0.000593709
vernier = 0.000445282
Gmin = 2.99471e-09
vernier = 0.000593709
vernier = 0.000445282
Gmin = 2.99204e-09
vernier = 0.000593709
vernier = 0.000445281
vernier = 0.000593708
vernier = 0.000445281
Gmin = 2.99005e-09
vernier = 0.000593708
vernier = 0.000445281
Gmin = 2.98738e-09
vernier = 0.000593708
vernier = 0.000445281
vernier = 0.000593708
vernier = 0.000445281
Gmin = 2.98539e-09
vernier = 0.000593708
vernier = 0.000445281
Gmin = 2.98273e-09
vernier = 0.000593708
vernier = 0.000445281
vernier = 0.000593708
Gmin = 2.97997e-09
vernier = 0.000445281
vernier = 0.000593707
vernier = 0.000445281
Gmin = 2.97809e-09
vernier = 0.000593707
vernier = 0.00044528
Gmin = 2.97544e-09
vernier = 0.000593707
vernier = 0.00044528
vernier = 0.000593707
vernier = 0.00044528
Gmin = 2.97345e-09
vernier = 0.000593707
vernier = 0.00044528
Gmin = 2.9708e-09
vernier = 0.000593707
vernier = 0.00044528
vernier = 0.000593707
vernier = 0.00044528
Gmin = 2.96882e-09
vernier = 0.000593706
vernier = 0.00044528
Gmin = 2.96618e-09
vernier = 0.000593706
vernier = 0.00044528
vernier = 0.000593706
Gmin = 2.96343e-09
vernier = 0.00044528
vernier = 0.000593706
vernier = 0.000445279
Gmin = 2.96156e-09
vernier = 0.000593706
vernier = 0.000445279
Gmin = 2.95892e-09
vernier = 0.000593706
vernier = 0.000445279
vernier = 0.000593705
vernier = 0.000445279
Gmin = 2.95695e-09
vernier = 0.000593705
vernier = 0.000445279
Gmin = 2.95432e-09
vernier = 0.000593705
vernier = 0.000445279
vernier = 0.000593705
vernier = 0.000445279
Gmin = 2.95234e-09
vernier = 0.000593705
vernier = 0.000445279
Gmin = 2.94972e-09
vernier = 0.000593705
vernier = 0.000445279
vernier = 0.000593705
Gmin = 2.94698e-09
vernier = 0.000445278
vernier = 0.000593704
vernier = 0.000445278
Gmin = 2.94512e-09
vernier = 0.000593704
vernier = 0.000445278
Gmin = 2.9425e-09
vernier = 0.000593704
vernier = 0.000445278
vernier = 0.000593704
vernier = 0.000445278
Gmin = 2.94054e-09
vernier = 0.000593704
vernier = 0.000445278
Gmin = 2.93792e-09
vernier = 0.000593704
vernier = 0.000445278
vernier = 0.000593704
vernier = 0.000445278
Gmin = 2.93596e-09
vernier = 0.000593703
vernier = 0.000445278
Gmin = 2.93334e-09
vernier = 0.000593703
vernier = 0.000445277
vernier = 0.000593703
Gmin = 2.93062e-09
vernier = 0.000445277
vernier = 0.000593703
vernier = 0.000445277
Gmin = 2.92878e-09
vernier = 0.000593703
vernier = 0.000445277
Gmin = 2.92617e-09
vernier = 0.000593703
vernier = 0.000445277
vernier = 0.000593703
vernier = 0.000445277
Gmin = 2.92422e-09
vernier = 0.000593702
vernier = 0.000445277
Gmin = 2.92161e-09
vernier = 0.000593702
vernier = 0.000445277
vernier = 0.000593702
vernier = 0.000445277
Gmin = 2.91966e-09
vernier = 0.000593702
vernier = 0.000445276
Gmin = 2.91706e-09
vernier = 0.000593702
vernier = 0.000445276
vernier = 0.000593702
Gmin = 2.91436e-09
vernier = 0.000445276
vernier = 0.000593701
vernier = 0.000445276
Gmin = 2.91252e-09
vernier = 0.000593701
vernier = 0.000445276
Gmin = 2.90993e-09
vernier = 0.000593701
vernier = 0.000445276
vernier = 0.000593701
vernier = 0.000445276
Gmin = 2.90799e-09
vernier = 0.000593701
vernier = 0.000445276
Gmin = 2.9054e-09
vernier = 0.000593701
vernier = 0.000445276
vernier = 0.000593701
vernier = 0.000445275
Gmin = 2.90346e-09
vernier = 0.0005937
vernier = 0.000445275
Gmin = 2.90087e-09
vernier = 0.0005937
vernier = 0.000445275
vernier = 0.0005937
Gmin = 2.89818e-09
vernier = 0.000445275
vernier = 0.0005937
vernier = 0.000445275
Gmin = 2.89636e-09
vernier = 0.0005937
vernier = 0.000445275
Gmin = 2.89378e-09
vernier = 0.0005937
vernier = 0.000445275
vernier = 0.0005937
vernier = 0.000445275
Gmin = 2.89185e-09
vernier = 0.000593699
vernier = 0.000445275
Gmin = 2.88927e-09
vernier = 0.000593699
vernier = 0.000445274
vernier = 0.000593699
vernier = 0.000445274
Gmin = 2.88734e-09
vernier = 0.000593699
vernier = 0.000445274
Gmin = 2.88477e-09
vernier = 0.000593699
vernier = 0.000445274
vernier = 0.000593699
Gmin = 2.8821e-09
vernier = 0.000445274
vernier = 0.000593699
vernier = 0.000445274
Gmin = 2.88028e-09
vernier = 0.000593698
vernier = 0.000445274
Gmin = 2.87772e-09
vernier = 0.000593698
vernier = 0.000445274
vernier = 0.000593698
vernier = 0.000445274
Gmin = 2.8758e-09
vernier = 0.000593698
vernier = 0.000445273
Gmin = 2.87324e-09
vernier = 0.000593698
vernier = 0.000445273
vernier = 0.000593698
vernier = 0.000445273
Gmin = 2.87132e-09
vernier = 0.000593697
vernier = 0.000445273
Gmin = 2.86876e-09
vernier = 0.000593697
vernier = 0.000445273
vernier = 0.000593697
Gmin = 2.8661e-09
vernier = 0.000445273
vernier = 0.000593697
vernier = 0.000445273
Gmin = 2.86429e-09
vernier = 0.000593697
vernier = 0.000445273
Gmin = 2.86174e-09
vernier = 0.000593697
vernier = 0.000445273
vernier = 0.000593697
vernier = 0.000445272
Gmin = 2.85983e-09
vernier = 0.000593696
vernier = 0.000445272
Gmin = 2.85729e-09
vernier = 0.000593696
vernier = 0.000445272
vernier = 0.000593696
vernier = 0.000445272
Gmin = 2.85538e-09
vernier = 0.000593696
vernier = 0.000445272
Gmin = 2.85284e-09
vernier = 0.000593696
vernier = 0.000445272
vernier = 0.000593696
Gmin = 2.85019e-09
vernier = 0.000445272
vernier = 0.000593696
vernier = 0.000445272
Gmin = 2.8484e-09
vernier = 0.000593695
vernier = 0.000445272
Gmin = 2.84586e-09
vernier = 0.000593695
vernier = 0.000445271
vernier = 0.000593695
vernier = 0.000445271
Gmin = 2.84396e-09
vernier = 0.000593695
vernier = 0.000445271
Gmin = 2.84143e-09
vernier = 0.000593695
vernier = 0.000445271
vernier = 0.000593695
vernier = 0.000445271
Gmin = 2.83953e-09
vernier = 0.000593695
vernier = 0.000445271
Gmin = 2.83701e-09
vernier = 0.000593694
vernier = 0.000445271
vernier = 0.000593694
Gmin = 2.83438e-09
vernier = 0.000445271
vernier = 0.000593694
vernier = 0.000445271
Gmin = 2.83259e-09
vernier = 0.000593694
vernier = 0.00044527
Gmin = 2.83007e-09
vernier = 0.000593694
vernier = 0.00044527
vernier = 0.000593694
vernier = 0.00044527
Gmin = 2.82818e-09
vernier = 0.000593693
vernier = 0.00044527
Gmin = 2.82566e-09
vernier = 0.000593693
vernier = 0.00044527
vernier = 0.000593693
vernier = 0.00044527
Gmin = 2.82377e-09
vernier = 0.000593693
vernier = 0.00044527
Gmin = 2.82126e-09
vernier = 0.000593693
vernier = 0.00044527
vernier = 0.000593693
Gmin = 2.81864e-09
vernier = 0.00044527
vernier = 0.000593693
vernier = 0.000445269
Gmin = 2.81687e-09
vernier = 0.000593692
vernier = 0.000445269
Gmin = 2.81436e-09
vernier = 0.000593692
vernier = 0.000445269
vernier = 0.000593692
vernier = 0.000445269
Gmin = 2.81248e-09
vernier = 0.000593692
vernier = 0.000445269
Gmin = 2.80998e-09
vernier = 0.000593692
vernier = 0.000445269
vernier = 0.000593692
vernier = 0.000445269
Gmin = 2.8081e-09
vernier = 0.000593692
vernier = 0.000445269
Gmin = 2.8056e-09
vernier = 0.000593691
vernier = 0.000445269
vernier = 0.000593691
Gmin = 2.803e-09
vernier = 0.000445268
vernier = 0.000593691
vernier = 0.000445268
Gmin = 2.80123e-09
vernier = 0.000593691
vernier = 0.000445268
Gmin = 2.79874e-09
vernier = 0.000593691
vernier = 0.000445268
vernier = 0.000593691
vernier = 0.000445268
Gmin = 2.79687e-09
vernier = 0.00059369
vernier = 0.000445268
Gmin = 2.79438e-09
vernier = 0.00059369
vernier = 0.000445268
vernier = 0.00059369
vernier = 0.000445268
Gmin = 2.79252e-09
vernier = 0.00059369
vernier = 0.000445268
Gmin = 2.79003e-09
vernier = 0.00059369
vernier = 0.000445267
vernier = 0.00059369
Gmin = 2.78744e-09
vernier = 0.000445267
vernier = 0.00059369
vernier = 0.000445267
Gmin = 2.78569e-09
vernier = 0.000593689
vernier = 0.000445267
Gmin = 2.78321e-09
vernier = 0.000593689
vernier = 0.000445267
vernier = 0.000593689
vernier = 0.000445267
Gmin = 2.78135e-09
vernier = 0.000593689
vernier = 0.000445267
Gmin = 2.77887e-09
vernier = 0.000593689
vernier = 0.000445267
vernier = 0.000593689
vernier = 0.000445267
Gmin = 2.77702e-09
vernier = 0.000593689
vernier = 0.000445266
Gmin = 2.77455e-09
vernier = 0.000593688
vernier = 0.000445266
vernier = 0.000593688
Gmin = 2.77197e-09
vernier = 0.000445266
vernier = 0.000593688
vernier = 0.000445266
Gmin = 2.77023e-09
vernier = 0.000593688
vernier = 0.000445266
Gmin = 2.76776e-09
vernier = 0.000593688
vernier = 0.000445266
vernier = 0.000593688
vernier = 0.000445266
Gmin = 2.76591e-09
vernier = 0.000593688
vernier = 0.000445266
Gmin = 2.76345e-09
vernier = 0.000593687
vernier = 0.000445266
vernier = 0.000593687
vernier = 0.000445265
Gmin = 2.7616e-09
vernier = 0.000593687
vernier = 0.000445265
Gmin = 2.75915e-09
vernier = 0.000593687
vernier = 0.000445265
vernier = 0.000593687
Gmin = 2.75659e-09
vernier = 0.000445265
vernier = 0.000593687
vernier = 0.000445265
Gmin = 2.75485e-09
vernier = 0.000593686
vernier = 0.000445265
Gmin = 2.7524e-09
vernier = 0.000593686
vernier = 0.000445265
vernier = 0.000593686
vernier = 0.000445265
Gmin = 2.75056e-09
vernier = 0.000593686
vernier = 0.000445265
Gmin = 2.74811e-09
vernier = 0.000593686
vernier = 0.000445264
vernier = 0.000593686
vernier = 0.000445264
Gmin = 2.74628e-09
vernier = 0.000593686
vernier = 0.000445264
Gmin = 2.74383e-09
vernier = 0.000593685
vernier = 0.000445264
vernier = 0.000593685
Gmin = 2.74129e-09
vernier = 0.000445264
vernier = 0.000593685
vernier = 0.000445264
Gmin = 2.73956e-09
vernier = 0.000593685
vernier = 0.000445264
Gmin = 2.73712e-09
vernier = 0.000593685
vernier = 0.000445264
vernier = 0.000593685
vernier = 0.000445264
Gmin = 2.7353e-09
vernier = 0.000593685
vernier = 0.000445263
Gmin = 2.73286e-09
vernier = 0.000593684
vernier = 0.000445263
vernier = 0.000593684
vernier = 0.000445263
Gmin = 2.73104e-09
vernier = 0.000593684
vernier = 0.000445263
Gmin = 2.72861e-09
vernier = 0.000593684
vernier = 0.000445263
vernier = 0.000593684
Gmin = 2.72608e-09
vernier = 0.000445263
vernier = 0.000593684
vernier = 0.000445263
Gmin = 2.72436e-09
vernier = 0.000593684
vernier = 0.000445263
Gmin = 2.72193e-09
vernier = 0.000593683
vernier = 0.000445263
vernier = 0.000593683
vernier = 0.000445262
Gmin = 2.72011e-09
vernier = 0.000593683
vernier = 0.000445262
Gmin = 2.71769e-09
vernier = 0.000593683
vernier = 0.000445262
vernier = 0.000593683
vernier = 0.000445262
Gmin = 2.71588e-09
vernier = 0.000593683
vernier = 0.000445262
Gmin = 2.71346e-09
vernier = 0.000593682
vernier = 0.000445262
vernier = 0.000593682
Gmin = 2.71095e-09
vernier = 0.000445262
vernier = 0.000593682
vernier = 0.000445262
Gmin = 2.70924e-09
vernier = 0.000593682
vernier = 0.000445262
Gmin = 2.70682e-09
vernier = 0.000593682
vernier = 0.000445261
vernier = 0.000593682
vernier = 0.000445261
Gmin = 2.70502e-09
vernier = 0.000593682
vernier = 0.000445261
Gmin = 2.70261e-09
vernier = 0.000593681
vernier = 0.000445261
vernier = 0.000593681
vernier = 0.000445261
Gmin = 2.70081e-09
vernier = 0.000593681
vernier = 0.000445261
Gmin = 2.6984e-09
vernier = 0.000593681
vernier = 0.000445261
vernier = 0.000593681
Gmin = 2.6959e-09
vernier = 0.000445261
vernier = 0.000593681
vernier = 0.000445261
Gmin = 2.6942e-09
vernier = 0.000593681
vernier = 0.00044526
Gmin = 2.6918e-09
vernier = 0.00059368
vernier = 0.00044526
vernier = 0.00059368
vernier = 0.00044526
Gmin = 2.69e-09
vernier = 0.00059368
vernier = 0.00044526
Gmin = 2.68761e-09
vernier = 0.00059368
vernier = 0.00044526
vernier = 0.00059368
vernier = 0.00044526
Gmin = 2.68582e-09
vernier = 0.00059368
vernier = 0.00044526
Gmin = 2.68343e-09
vernier = 0.00059368
vernier = 0.00044526
vernier = 0.000593679
Gmin = 2.68094e-09
vernier = 0.00044526
vernier = 0.000593679
vernier = 0.000445259
Gmin = 2.67925e-09
vernier = 0.000593679
vernier = 0.000445259
Gmin = 2.67686e-09
vernier = 0.000593679
vernier = 0.000445259
vernier = 0.000593679
vernier = 0.000445259
Gmin = 2.67508e-09
vernier = 0.000593679
vernier = 0.000445259
Gmin = 2.67269e-09
vernier = 0.000593678
vernier = 0.000445259
vernier = 0.000593678
vernier = 0.000445259
Gmin = 2.67091e-09
vernier = 0.000593678
vernier = 0.000445259
Gmin = 2.66853e-09
vernier = 0.000593678
vernier = 0.000445259
vernier = 0.000593678
Gmin = 2.66606e-09
vernier = 0.000445258
vernier = 0.000593678
vernier = 0.000445258
Gmin = 2.66438e-09
vernier = 0.000593678
vernier = 0.000445258
Gmin = 2.66201e-09
vernier = 0.000593677
vernier = 0.000445258
vernier = 0.000593677
vernier = 0.000445258
Gmin = 2.66023e-09
vernier = 0.000593677
vernier = 0.000445258
Gmin = 0
Gmin stepping failed

Starting source stepping with srcstepmethod=0
Source Step = 3.0303%
Source Step = 21.2121%
vernier = 0.0625
Source Step = 20.5492%
Source Step = 20.6676%
Source Step = 20.786%
Source Step = 20.9044%
Source Step = 21.0227%
vernier = 0.00585938
Source Step = 21.1825%
Source Step = 21.3601%
Source Step = 21.5376%
Source Step = 21.7152%
Source Step = 21.8928%
vernier = 0.00878906
Source Step = 22.1236%
Source Step = 22.3899%
Source Step = 22.6563%
Source Step = 22.9226%
Source Step = 23.1889%
vernier = 0.0131836
Source Step = 23.5218%
Source Step = 23.9213%
Source Step = 24.3208%
Source Step = 24.7203%
Source Step = 25.1199%
vernier = 0.0197754
Source Step = 25.5993%
Source Step = 26.1985%
Source Step = 26.7978%
Source Step = 27.397%
Source Step = 27.9963%
vernier = 0.0296631
Source Step = 28.6854%
Source Step = 29.5843%
Source Step = 30.4832%
Source Step = 31.3821%
Source Step = 32.2809%
vernier = 0.0444946
Source Step = 33.2697%
Source Step = 34.618%
Source Step = 35.9664%
Source Step = 37.3147%
Source Step = 38.663%
vernier = 0.0667419
Source Step = 40.0787%
Source Step = 42.1012%
Source Step = 44.1237%
Source Step = 46.1462%
Source Step = 48.1687%
Source Step = 50.1912%
vernier = 0.100113
Source Step = 53.2249%
Source Step = 56.2586%
Source Step = 59.2923%
Source Step = 62.326%
Source Step = 65.3598%
vernier = 0.150169
Source Step = 69.7587%
Source Step = 74.3093%
Source Step = 78.8598%
Source Step = 83.4104%
Source Step = 87.961%
vernier = 0.225254
Source Step = 94.3318%
Source stepping succeeded in finding the operating point.

Changing Tseed to 1e-08
Changing Tseed to 1e-10
Total elapsed time: 15.716 seconds.

Files loaded:
C:\users\sebastian\Desktop\FIUBA-2do Cuatrimestre\Taller de Diseño Electrónico TA138\TP_Taller_de_Diseño_ TA138_G7\Simulación\BUCK\Draft3.net
C:\users\sebastian\AppData\Local\LTspice\lib\sub\LT1720.sub
C:\users\sebastian\AppData\Local\LTspice\lib\sub\LTC.lib

