LTspice 24.0.12 for Windows
Circuit: * C:\Users\ramaz\Desktop\Circuitos II\TP-TA138-G7\Simulaciˇn\BUCK\pwm.asc
Start Time: Sun May 31 19:04:44 2026
Warning: Multiple definitions of model "2scr375p" Type: BJT
Warning: Multiple definitions of model "bc857b" Type: BJT
Warning: Multiple definitions of model "bc847c" Type: BJT
Warning: Multiple definitions of model "bc847b" Type: BJT
solver = Normal
Maximum thread count: 8
tnom = 27
temp = 27
method = modified trap
gmin = 1e-10
abstol = 1e-10
reltol = 0.003
Early termination of direct N-R iteration.
Direct Newton iteration failed to find .op point.  (Use ".option noopiter" to skip.)
Starting Gmin stepping
Gmin = 10
vernier = 0.5
vernier = 0.25
vernier = 0.125
Gmin = 5.5165
vernier = 0.0625
vernier = 0.03125
vernier = 0.015625
vernier = 0.0078125
Gmin = 5.49501
vernier = 0.00390625
vernier = 0.00195312
vernier = 0.000976562
vernier = 0.000488281
Gmin = 5.50104
Gmin = 0
Gmin stepping succeeded in finding the operating point.

Total elapsed time: 2.366 seconds.

