LTspice 24.1.5 for Windows
Circuit: C:\users\sebastian\Desktop\FIUBA-2do Cuatrimestre\Taller de Diseño Electrónico TA138\TP_Taller_de_Diseño_ TA138_G7\Simulación\BUCK\pwm.net
Start Time: Sat May 23 23:36:10 2026
Options: gmin=1e-10  abstol=1e-10  reltol=0.003
solver = Normal
Maximum thread count: 4
tnom = 27
temp = 27
method = trap
gmin = 1e-10
abstol = 1e-10
reltol = 0.003
Early termination of direct N-R iteration.
Direct Newton iteration failed to find .op point.  (Use ".option noopiter" to skip.)
Starting Gmin stepping
Gmin = 10
vernier = 0.5
vernier = 0.25
vernier = 0.125
Gmin = 5.5165
vernier = 0.0625
vernier = 0.03125
vernier = 0.015625
vernier = 0.0078125
Gmin = 5.49501
vernier = 0.00390625
vernier = 0.00195312
vernier = 0.000976562
vernier = 0.000488281
Gmin = 5.50104
Gmin = 0
Gmin stepping failed

Starting source stepping with srcstepmethod=0
Source Step = 3.0303%
Source Step = 33.3333%
Source Step = 63.6364%
Source Step = 93.9394%
Source stepping succeeded in finding the operating point.

Total elapsed time: 0.616 seconds.

Files loaded:
C:\users\sebastian\Desktop\FIUBA-2do Cuatrimestre\Taller de Diseño Electrónico TA138\TP_Taller_de_Diseño_ TA138_G7\Simulación\BUCK\pwm.net
C:\users\sebastian\AppData\Local\LTspice\lib\cmp\standard.dio
C:\users\sebastian\Desktop\FIUBA-2do Cuatrimestre\Taller de Diseño Electrónico TA138\TP_Taller_de_Diseño_ TA138_G7\Simulación\BUCK\Modelos\lm393.lib
C:\users\sebastian\Desktop\FIUBA-2do Cuatrimestre\Taller de Diseño Electrónico TA138\TP_Taller_de_Diseño_ TA138_G7\Simulación\BUCK\Modelos\TL082.txt
C:\users\sebastian\Desktop\FIUBA-2do Cuatrimestre\Taller de Diseño Electrónico TA138\TP_Taller_de_Diseño_ TA138_G7\Simulación\BUCK\Modelos\lm358.txt

