LTspice 24.0.12 for Windows
Circuit: * C:\Users\ramaz\Desktop\Circuitos II\TP-TA138-G7\Simulaciˇn\BUCK\pwm.asc
Start Time: Sat May 23 18:03:57 2026
solver = Normal
Maximum thread count: 8
tnom = 27
temp = 27
method = modified trap
gmin = 1e-10
abstol = 1e-10
reltol = 0.003
Early termination of direct N-R iteration.
Direct Newton iteration failed to find .op point.  (Use ".option noopiter" to skip.)
Starting Gmin stepping
Gmin = 10
vernier = 0.5
vernier = 0.25
vernier = 0.125
Gmin = 5.5165
vernier = 0.0625
vernier = 0.03125
vernier = 0.015625
vernier = 0.0078125
Gmin = 5.49501
vernier = 0.00390625
vernier = 0.00195312
vernier = 0.000976562
vernier = 0.000488281
Gmin = 5.50104
Gmin = 0
Gmin stepping failed

Starting source stepping with srcstepmethod=0
Source Step = 3.0303%
Source Step = 33.3333%
Source Step = 52.4621%
Source Step = 54.3561%
Source Step = 56.25%
Source Step = 58.1439%
Source Step = 60.0379%
Source Step = 61.9318%
vernier = 0.09375
Source Step = 64.7727%
Source Step = 67.6136%
Source Step = 70.4545%
Source Step = 73.2955%
Source Step = 76.1364%
vernier = 0.140625
Source Step = 80.2557%
Source Step = 84.517%
Source Step = 88.7784%
Source Step = 93.0398%
Source Step = 97.3011%
vernier = 0.210938
Source stepping succeeded in finding the operating point.

Total elapsed time: 1.570 seconds.

