<<<<<<< HEAD
LTspice 24.1.5 for Windows
Circuit: C:\users\sebastian\Desktop\FIUBA-2do Cuatrimestre\Taller de DiseÃąo ElectrÃģnico TA138\TP_Taller_de_DiseÃąo_ TA138_G7\SimulaciÃģn\BUCK\pwm.net
Start Time: Sat May 23 23:36:10 2026
Options: gmin=1e-10  abstol=1e-10  reltol=0.003
solver = Normal
Maximum thread count: 4
=======
LTspice 24.0.12 for Windows
Circuit: * C:\Users\ramaz\Desktop\Circuitos II\TP-TA138-G7\Simulación\BUCK\pwm.asc
Start Time: Sat May 23 18:03:57 2026
solver = Normal
Maximum thread count: 8
>>>>>>> 7f6f2dd93bfa421b072a77fb72acc135043ecadb
tnom = 27
temp = 27
method = modified trap
gmin = 1e-10
abstol = 1e-10
reltol = 0.003
Early termination of direct N-R iteration.
Direct Newton iteration failed to find .op point.  (Use ".option noopiter" to skip.)
Starting Gmin stepping
Gmin = 10
vernier = 0.5
vernier = 0.25
vernier = 0.125
Gmin = 5.5165
vernier = 0.0625
vernier = 0.03125
vernier = 0.015625
vernier = 0.0078125
Gmin = 5.49501
vernier = 0.00390625
vernier = 0.00195312
vernier = 0.000976562
vernier = 0.000488281
Gmin = 5.50104
Gmin = 0
Gmin stepping failed

Starting source stepping with srcstepmethod=0
Source Step = 3.0303%
Source Step = 33.3333%
Source Step = 52.4621%
Source Step = 54.3561%
Source Step = 56.25%
Source Step = 58.1439%
Source Step = 60.0379%
Source Step = 61.9318%
vernier = 0.09375
Source Step = 64.7727%
Source Step = 67.6136%
Source Step = 70.4545%
Source Step = 73.2955%
Source Step = 76.1364%
vernier = 0.140625
Source Step = 80.2557%
Source Step = 84.517%
Source Step = 88.7784%
Source Step = 93.0398%
Source Step = 97.3011%
vernier = 0.210938
Source stepping succeeded in finding the operating point.

<<<<<<< HEAD
Total elapsed time: 0.616 seconds.

Files loaded:
C:\users\sebastian\Desktop\FIUBA-2do Cuatrimestre\Taller de DiseÃąo ElectrÃģnico TA138\TP_Taller_de_DiseÃąo_ TA138_G7\SimulaciÃģn\BUCK\pwm.net
C:\users\sebastian\AppData\Local\LTspice\lib\cmp\standard.dio
C:\users\sebastian\Desktop\FIUBA-2do Cuatrimestre\Taller de DiseÃąo ElectrÃģnico TA138\TP_Taller_de_DiseÃąo_ TA138_G7\SimulaciÃģn\BUCK\Modelos\lm393.lib
C:\users\sebastian\Desktop\FIUBA-2do Cuatrimestre\Taller de DiseÃąo ElectrÃģnico TA138\TP_Taller_de_DiseÃąo_ TA138_G7\SimulaciÃģn\BUCK\Modelos\TL082.txt
C:\users\sebastian\Desktop\FIUBA-2do Cuatrimestre\Taller de DiseÃąo ElectrÃģnico TA138\TP_Taller_de_DiseÃąo_ TA138_G7\SimulaciÃģn\BUCK\Modelos\lm358.txt
=======
Total elapsed time: 1.570 seconds.
>>>>>>> 7f6f2dd93bfa421b072a77fb72acc135043ecadb

